[TITLE]
20412 Kabona-Kinazi WSS in Huye District

[JUNCTIONS]
;ID                  	Elev        	Demand      	Pattern         
 Node-1559           	1557.0      	0.0         	                	;
 Node-48             	1558.0      	0.0         	                	;
 Node-49             	1556.0      	0.0         	                	;
 Node-50             	1556.0      	0.0         	                	;
 Node-51             	1558.0      	0.0         	                	;
 Node-52             	1557.0      	0.0         	                	;
 Node-53             	1556.0      	0.0         	                	;
 Node-54             	1557.0      	0.0         	                	;
 Node-55             	1555.0      	0.0         	                	;
 Node-56             	1557.0      	0.0         	                	;
 Node-57             	1554.0      	0.0         	                	;
 Node-58             	1554.0      	0.0         	                	;
 Node-59             	1557.0      	0.0         	                	;
 Node-60             	1555.0      	0.0         	                	;
 Node-61             	1555.0      	0.0         	                	;
 Node-62             	1555.0      	0.0         	                	;
 Node-63             	1554.0      	0.0         	                	;
 Node-64             	1554.0      	0.0         	                	;
 Node-65             	1554.0      	0.0         	                	;
 Node-66             	1554.0      	0.0         	                	;
 Node-67             	1554.0      	0.0         	                	;
 Node-68             	1554.0      	0.0         	                	;
 Node-69             	1554.0      	0.0         	                	;
 Node-70             	1553.0      	0.0         	                	;
 Node-71             	1552.0      	0.0         	                	;
 Node-72             	1551.0      	0.0         	                	;
 Node-73             	1549.0      	0.0         	                	;
 Node-74             	1549.0      	0.0         	                	;
 Node-75             	1549.0      	0.0         	                	;
 Node-76             	1548.0      	0.0         	                	;
 Node-77             	1548.0      	0.0         	                	;
 Node-78             	1546.0      	0.0         	                	;
 Node-79             	1545.0      	0.0         	                	;
 Node-80             	1546.0      	0.0         	                	;
 Node-81             	1545.0      	0.0         	                	;
 Node-82             	1544.0      	0.0         	                	;
 Node-83             	1544.0      	0.0         	                	;
 Node-84             	1545.0      	0.0         	                	;
 Node-85             	1545.0      	0.0         	                	;
 Node-86             	1546.0      	0.0         	                	;
 Node-87             	1547.0      	0.0         	                	;
 Node-88             	1547.0      	0.0         	                	;
 Node-1578           	1548.0      	0.0         	                	;
 Node-1579           	1549.0      	0.0         	                	;
 Node-1580           	1549.0      	0.0         	                	;
 Node-1577           	1669.0      	0.0         	                	;
 Node-90             	1667.0      	0.0         	                	;
 Node-91             	1667.0      	0.0         	                	;
 Node-92             	1665.0      	0.0         	                	;
 Node-93             	1644.0      	0.0         	                	;
 Node-94             	1641.0      	0.0         	                	;
 Node-95             	1640.0      	0.0         	                	;
 Node-96             	1636.0      	0.0         	                	;
 Node-97             	1636.0      	0.0         	                	;
 Node-98             	1636.0      	0.0         	                	;
 Node-99             	1634.0      	0.0         	                	;
 Node-100            	1630.0      	0.0         	                	;
 Node-101            	1626.0      	0.0         	                	;
 Node-102            	1617.0      	0.0         	                	;
 Node-103            	1618.0      	0.0         	                	;
 Node-104            	1617.0      	0.0         	                	;
 Node-105            	1613.0      	0.0         	                	;
 Node-106            	1609.0      	0.0         	                	;
 Node-107            	1610.0      	0.0         	                	;
 Node-108            	1607.0      	0.0         	                	;
 Node-109            	1607.0      	0.0         	                	;
 Node-110            	1604.0      	0.0         	                	;
 Node-111            	1601.0      	0.0         	                	;
 Node-112            	1602.0      	0.0         	                	;
 Node-113            	1600.0      	0.0         	                	;
 Node-114            	1597.0      	0.0         	                	;
 Node-115            	1598.0      	0.0         	                	;
 Node-116            	1596.0      	0.0         	                	;
 Node-117            	1594.0      	0.0         	                	;
 Node-118            	1594.0      	0.0         	                	;
 Node-119            	1594.0      	0.0         	                	;
 Node-120            	1592.0      	0.0         	                	;
 Node-121            	1592.0      	0.0         	                	;
 Node-122            	1590.0      	0.0         	                	;
 Node-1573           	1590.0      	0.0         	                	;
 Node-1235           	1782.0      	0.0         	                	;
 Node-125            	1781.0      	0.0         	                	;
 Node-918            	1735.0      	0.0         	                	;
 Node-128            	1734.0      	0.0         	                	;
 Node-129            	1734.0      	0.0         	                	;
 Node-130            	1734.0      	0.0         	                	;
 Node-131            	1732.0      	0.0         	                	;
 Node-132            	1732.0      	0.0         	                	;
 Node-133            	1732.0      	0.0         	                	;
 Node-134            	1732.0      	0.0         	                	;
 Node-135            	1732.0      	0.0         	                	;
 Node-136            	1732.0      	0.0         	                	;
 Node-137            	1730.0      	0.0         	                	;
 Node-138            	1730.0      	0.0         	                	;
 Node-139            	1731.0      	0.0         	                	;
 Node-140            	1729.0      	0.0         	                	;
 Node-141            	1729.0      	0.0         	                	;
 Node-142            	1727.0      	0.0         	                	;
 Node-143            	1727.0      	0.0         	                	;
 Node-144            	1725.0      	0.0         	                	;
 Node-145            	1725.0      	0.0         	                	;
 Node-146            	1721.0      	0.0         	                	;
 Node-147            	1719.0      	0.0         	                	;
 Node-148            	1718.0      	0.0         	                	;
 Node-149            	1718.0      	0.0         	                	;
 Node-150            	1716.0      	0.0         	                	;
 Node-151            	1714.0      	0.0         	                	;
 Node-152            	1713.0      	0.0         	                	;
 Node-153            	1712.0      	0.0         	                	;
 Node-154            	1712.0      	0.0         	                	;
 Node-155            	1711.0      	0.0         	                	;
 Node-1103           	1711.0      	0.0         	                	;
 Node-1099           	1745.0      	0.0         	                	;
 Node-158            	1745.0      	0.0         	                	;
 Node-164            	1745.0      	0.0         	                	;
 Node-827            	1729.0      	0.0         	                	;
 Node-161            	1728.0      	0.0         	                	;
 Node-162            	1728.0      	0.0         	                	;
 Node-648            	1727.0      	0.0         	                	;
 Node-165            	1745.0      	0.0         	                	;
 Node-375            	1713.0      	0.0         	                	;
 Node-167            	1712.0      	0.0         	                	;
 Node-168            	1712.0      	0.0         	                	;
 Node-169            	1712.0      	0.0         	                	;
 Node-170            	1711.0      	0.0         	                	;
 Node-171            	1711.0      	0.0         	                	;
 Node-172            	1711.0      	0.0         	                	;
 Node-173            	1709.0      	0.0         	                	;
 Node-228            	1709.0      	0.0         	                	;
 Node-321            	1719.0      	0.0         	                	;
 Node-176            	1719.0      	0.0         	                	;
 Node-177            	1719.0      	0.0         	                	;
 Node-178            	1719.0      	0.0         	                	;
 Node-179            	1719.0      	0.0         	                	;
 Node-180            	1719.0      	0.0         	                	;
 Node-181            	1719.0      	0.0         	                	;
 Node-182            	1719.0      	0.0         	                	;
 Node-183            	1719.0      	0.0         	                	;
 Node-184            	1719.0      	0.0         	                	;
 Node-185            	1719.0      	0.0         	                	;
 Node-186            	1718.0      	0.0         	                	;
 Node-187            	1718.0      	0.0         	                	;
 Node-188            	1717.0      	0.0         	                	;
 Node-189            	1715.0      	0.0         	                	;
 Node-190            	1714.0      	0.0         	                	;
 Node-191            	1714.0      	0.0         	                	;
 Node-192            	1714.0      	0.0         	                	;
 Node-193            	1713.0      	0.0         	                	;
 Node-195            	1713.0      	0.0         	                	;
 Node-196            	1713.0      	0.0         	                	;
 Node-330            	1722.0      	0.0         	                	;
 Node-198            	1722.0      	0.0         	                	;
 Node-199            	1722.0      	0.0         	                	;
 Node-200            	1722.0      	0.0         	                	;
 Node-202            	1730.0      	0.0         	                	;
 Node-203            	1730.0      	0.0         	                	;
 Node-204            	1729.0      	0.0         	                	;
 Node-205            	1729.0      	0.0         	                	;
 Node-206            	1728.0      	0.0         	                	;
 Node-207            	1727.0      	0.0         	                	;
 Node-208            	1726.0      	0.0         	                	;
 Node-209            	1725.0      	0.0         	                	;
 Node-210            	1722.0      	0.0         	                	;
 Node-211            	1721.0      	0.0         	                	;
 Node-212            	1721.0      	0.0         	                	;
 Node-213            	1719.0      	0.0         	                	;
 Node-214            	1719.0      	0.0         	                	;
 Node-215            	1719.0      	0.0         	                	;
 Node-216            	1718.0      	0.0         	                	;
 Node-217            	1718.0      	0.0         	                	;
 Node-218            	1718.0      	0.0         	                	;
 Node-219            	1718.0      	0.0         	                	;
 Node-220            	1718.0      	0.0         	                	;
 Node-221            	1720.0      	0.0         	                	;
 Node-222            	1719.0      	0.0         	                	;
 Node-223            	1719.0      	0.0         	                	;
 Node-224            	1719.0      	0.0         	                	;
 Node-225            	1719.0      	0.0         	                	;
 Node-226            	1720.0      	0.0         	                	;
 Node-229            	1710.0      	0.0         	                	;
 Node-230            	1710.0      	0.0         	                	;
 Node-231            	1711.0      	0.0         	                	;
 Node-232            	1711.0      	0.0         	                	;
 Node-233            	1711.0      	0.0         	                	;
 Node-234            	1711.0      	0.0         	                	;
 Node-235            	1711.0      	0.0         	                	;
 Node-236            	1711.0      	0.0         	                	;
 Node-237            	1711.0      	0.0         	                	;
 Node-238            	1712.0      	0.0         	                	;
 Node-239            	1713.0      	0.0         	                	;
 Node-240            	1713.0      	0.0         	                	;
 Node-241            	1714.0      	0.0         	                	;
 Node-242            	1714.0      	0.0         	                	;
 Node-243            	1715.0      	0.0         	                	;
 Node-244            	1716.0      	0.0         	                	;
 Node-245            	1718.0      	0.0         	                	;
 Node-246            	1718.0      	0.0         	                	;
 Node-247            	1719.0      	0.0         	                	;
 Node-248            	1719.0      	0.0         	                	;
 Node-249            	1719.0      	0.0         	                	;
 Node-250            	1719.0      	0.0         	                	;
 Node-251            	1719.0      	0.0         	                	;
 Node-252            	1719.0      	0.0         	                	;
 Node-253            	1719.0      	0.0         	                	;
 Node-254            	1719.0      	0.0         	                	;
 Node-255            	1719.0      	0.0         	                	;
 Node-256            	1719.0      	0.0         	                	;
 Node-257            	1719.0      	0.0         	                	;
 Node-258            	1720.0      	0.0         	                	;
 Node-259            	1719.0      	0.0         	                	;
 Node-260            	1719.0      	0.0         	                	;
 Node-261            	1719.0      	0.0         	                	;
 Node-262            	1719.0      	0.0         	                	;
 Node-263            	1720.0      	0.0         	                	;
 Node-264            	1718.0      	0.0         	                	;
 Node-265            	1718.0      	0.0         	                	;
 Node-266            	1718.0      	0.0         	                	;
 Node-267            	1718.0      	0.0         	                	;
 Node-268            	1718.0      	0.0         	                	;
 Node-269            	1719.0      	0.0         	                	;
 Node-270            	1719.0      	0.0         	                	;
 Node-271            	1719.0      	0.0         	                	;
 Node-272            	1721.0      	0.0         	                	;
 Node-273            	1721.0      	0.0         	                	;
 Node-274            	1722.0      	0.0         	                	;
 Node-275            	1725.0      	0.0         	                	;
 Node-276            	1726.0      	0.0         	                	;
 Node-277            	1727.0      	0.0         	                	;
 Node-278            	1728.0      	0.0         	                	;
 Node-279            	1729.0      	0.0         	                	;
 Node-280            	1729.0      	0.0         	                	;
 Node-281            	1730.0      	0.0         	                	;
 Node-282            	1730.0      	0.0         	                	;
 Node-285            	1730.0      	0.0         	                	;
 Node-286            	1730.0      	0.0         	                	;
 Node-287            	1729.0      	0.0         	                	;
 Node-288            	1729.0      	0.0         	                	;
 Node-289            	1728.0      	0.0         	                	;
 Node-291            	1730.0      	0.0         	                	;
 Node-292            	1730.0      	0.0         	                	;
 Node-293            	1729.0      	0.0         	                	;
 Node-294            	1729.0      	0.0         	                	;
 Node-295            	1728.0      	0.0         	                	;
 Node-296            	1727.0      	0.0         	                	;
 Node-297            	1726.0      	0.0         	                	;
 Node-298            	1725.0      	0.0         	                	;
 Node-299            	1722.0      	0.0         	                	;
 Node-437            	1715.0      	0.0         	                	;
 Node-302            	1715.0      	0.0         	                	;
 Node-303            	1716.0      	0.0         	                	;
 Node-304            	1715.0      	0.0         	                	;
 Node-305            	1713.0      	0.0         	                	;
 Node-306            	1713.0      	0.0         	                	;
 Node-307            	1713.0      	0.0         	                	;
 Node-308            	1711.0      	0.0         	                	;
 Node-309            	1711.0      	0.0         	                	;
 Node-310            	1709.0      	0.0         	                	;
 Node-311            	1707.0      	0.0         	                	;
 Node-312            	1708.0      	0.0         	                	;
 Node-313            	1707.0      	0.0         	                	;
 Node-314            	1706.0      	0.0         	                	;
 Node-315            	1704.0      	0.0         	                	;
 Node-316            	1703.0      	0.0         	                	;
 Node-317            	1703.0      	0.0         	                	;
 Node-342            	1703.0      	0.0         	                	;
 Node-805            	1735.0      	0.0         	                	;
 Node-320            	1736.0      	0.0         	                	;
 Node-322            	1719.0      	0.0         	                	;
 Node-323            	1719.0      	0.0         	                	;
 Node-324            	1718.0      	0.0         	                	;
 Node-325            	1718.0      	0.0         	                	;
 Node-326            	1717.0      	0.0         	                	;
 Node-328            	1717.0      	0.0         	                	;
 Node-329            	1717.0      	0.0         	                	;
 Node-331            	1721.0      	0.0         	                	;
 Node-332            	1721.0      	0.0         	                	;
 Node-333            	1719.0      	0.0         	                	;
 Node-334            	1719.0      	0.0         	                	;
 Node-335            	1719.0      	0.0         	                	;
 Node-336            	1718.0      	0.0         	                	;
 Node-337            	1718.0      	0.0         	                	;
 Node-338            	1718.0      	0.0         	                	;
 Node-340            	1718.0      	0.0         	                	;
 Node-341            	1718.0      	0.0         	                	;
 Node-343            	1703.0      	0.0         	                	;
 Node-344            	1705.0      	0.0         	                	;
 Node-345            	1705.0      	0.0         	                	;
 Node-346            	1707.0      	0.0         	                	;
 Node-347            	1706.0      	0.0         	                	;
 Node-348            	1707.0      	0.0         	                	;
 Node-349            	1707.0      	0.0         	                	;
 Node-350            	1707.0      	0.0         	                	;
 Node-351            	1707.0      	0.0         	                	;
 Node-352            	1709.0      	0.0         	                	;
 Node-353            	1708.0      	0.0         	                	;
 Node-354            	1708.0      	0.0         	                	;
 Node-355            	1709.0      	0.0         	                	;
 Node-356            	1709.0      	0.0         	                	;
 Node-357            	1710.0      	0.0         	                	;
 Node-358            	1710.0      	0.0         	                	;
 Node-359            	1711.0      	0.0         	                	;
 Node-360            	1711.0      	0.0         	                	;
 Node-361            	1712.0      	0.0         	                	;
 Node-362            	1712.0      	0.0         	                	;
 Node-363            	1712.0      	0.0         	                	;
 Node-364            	1715.0      	0.0         	                	;
 Node-365            	1713.0      	0.0         	                	;
 Node-366            	1714.0      	0.0         	                	;
 Node-367            	1713.0      	0.0         	                	;
 Node-368            	1714.0      	0.0         	                	;
 Node-369            	1713.0      	0.0         	                	;
 Node-370            	1714.0      	0.0         	                	;
 Node-371            	1714.0      	0.0         	                	;
 Node-372            	1714.0      	0.0         	                	;
 Node-373            	1714.0      	0.0         	                	;
 Node-376            	1713.0      	0.0         	                	;
 Node-378            	1711.0      	0.0         	                	;
 Node-379            	1711.0      	0.0         	                	;
 Node-565            	1714.0      	0.0         	                	;
 Node-381            	1714.0      	0.0         	                	;
 Node-382            	1713.0      	0.0         	                	;
 Node-383            	1712.0      	0.0         	                	;
 Node-384            	1711.0      	0.0         	                	;
 Node-387            	1710.0      	0.0         	                	;
 Node-388            	1710.0      	0.0         	                	;
 Node-389            	1709.0      	0.0         	                	;
 Node-390            	1709.0      	0.0         	                	;
 Node-391            	1707.0      	0.0         	                	;
 Node-393            	1713.0      	0.0         	                	;
 Node-394            	1713.0      	0.0         	                	;
 Node-395            	1712.0      	0.0         	                	;
 Node-396            	1712.0      	0.0         	                	;
 Node-397            	1712.0      	0.0         	                	;
 Node-398            	1711.0      	0.0         	                	;
 Node-399            	1710.0      	0.0         	                	;
 Node-400            	1711.0      	0.0         	                	;
 Node-401            	1710.0      	0.0         	                	;
 Node-402            	1709.0      	0.0         	                	;
 Node-403            	1709.0      	0.0         	                	;
 Node-404            	1709.0      	0.0         	                	;
 Node-405            	1708.0      	0.0         	                	;
 Node-406            	1708.0      	0.0         	                	;
 Node-407            	1708.0      	0.0         	                	;
 Node-408            	1708.0      	0.0         	                	;
 Node-409            	1708.0      	0.0         	                	;
 Node-410            	1707.0      	0.0         	                	;
 Node-411            	1707.0      	0.0         	                	;
 Node-413            	1707.0      	0.0         	                	;
 Node-414            	1707.0      	0.0         	                	;
 Node-415            	1707.0      	0.0         	                	;
 Node-416            	1708.0      	0.0         	                	;
 Node-417            	1708.0      	0.0         	                	;
 Node-418            	1708.0      	0.0         	                	;
 Node-419            	1709.0      	0.0         	                	;
 Node-420            	1709.0      	0.0         	                	;
 Node-421            	1709.0      	0.0         	                	;
 Node-422            	1709.0      	0.0         	                	;
 Node-423            	1709.0      	0.0         	                	;
 Node-424            	1710.0      	0.0         	                	;
 Node-425            	1710.0      	0.0         	                	;
 Node-426            	1710.0      	0.0         	                	;
 Node-427            	1712.0      	0.0         	                	;
 Node-428            	1711.0      	0.0         	                	;
 Node-429            	1712.0      	0.0         	                	;
 Node-430            	1712.0      	0.0         	                	;
 Node-431            	1713.0      	0.0         	                	;
 Node-432            	1713.0      	0.0         	                	;
 Node-433            	1713.0      	0.0         	                	;
 Node-434            	1714.0      	0.0         	                	;
 Node-435            	1715.0      	0.0         	                	;
 Node-436            	1715.0      	0.0         	                	;
 Node-441            	1743.0      	0.0         	                	;
 Node-469            	1743.0      	0.0         	                	;
 Node-442            	1743.0      	0.0         	                	;
 Node-443            	1743.0      	0.0         	                	;
 Node-444            	1742.0      	0.0         	                	;
 Node-445            	1741.0      	0.0         	                	;
 Node-446            	1741.0      	0.0         	                	;
 Node-447            	1740.0      	0.0         	                	;
 Node-448            	1740.0      	0.0         	                	;
 Node-449            	1738.0      	0.0         	                	;
 Node-450            	1738.0      	0.0         	                	;
 Node-451            	1739.0      	0.0         	                	;
 Node-452            	1740.0      	0.0         	                	;
 Node-453            	1739.0      	0.0         	                	;
 Node-454            	1738.0      	0.0         	                	;
 Node-455            	1739.0      	0.0         	                	;
 Node-456            	1739.0      	0.0         	                	;
 Node-457            	1739.0      	0.0         	                	;
 Node-458            	1737.0      	0.0         	                	;
 Node-459            	1738.0      	0.0         	                	;
 Node-460            	1738.0      	0.0         	                	;
 Node-461            	1738.0      	0.0         	                	;
 Node-462            	1739.0      	0.0         	                	;
 Node-463            	1735.0      	0.0         	                	;
 Node-464            	1734.0      	0.0         	                	;
 Node-465            	1733.0      	0.0         	                	;
 Node-466            	1732.0      	0.0         	                	;
 Node-467            	1733.0      	0.0         	                	;
 Node-468            	1733.0      	0.0         	                	;
 Node-470            	1743.0      	0.0         	                	;
 Node-471            	1743.0      	0.0         	                	;
 Node-472            	1742.0      	0.0         	                	;
 Node-473            	1741.0      	0.0         	                	;
 Node-474            	1741.0      	0.0         	                	;
 Node-475            	1740.0      	0.0         	                	;
 Node-476            	1740.0      	0.0         	                	;
 Node-477            	1738.0      	0.0         	                	;
 Node-478            	1738.0      	0.0         	                	;
 Node-479            	1739.0      	0.0         	                	;
 Node-480            	1737.0      	0.0         	                	;
 Node-481            	1739.0      	0.0         	                	;
 Node-482            	1738.0      	0.0         	                	;
 Node-483            	1739.0      	0.0         	                	;
 Node-484            	1736.0      	0.0         	                	;
 Node-485            	1737.0      	0.0         	                	;
 Node-486            	1736.0      	0.0         	                	;
 Node-487            	1737.0      	0.0         	                	;
 Node-488            	1736.0      	0.0         	                	;
 Node-489            	1735.0      	0.0         	                	;
 Node-490            	1735.0      	0.0         	                	;
 Node-491            	1734.0      	0.0         	                	;
 Node-492            	1733.0      	0.0         	                	;
 Node-493            	1732.0      	0.0         	                	;
 Node-494            	1732.0      	0.0         	                	;
 Node-495            	1729.0      	0.0         	                	;
 Node-496            	1728.0      	0.0         	                	;
 Node-497            	1727.0      	0.0         	                	;
 Node-498            	1727.0      	0.0         	                	;
 Node-499            	1727.0      	0.0         	                	;
 Node-500            	1725.0      	0.0         	                	;
 Node-501            	1721.0      	0.0         	                	;
 Node-502            	1721.0      	0.0         	                	;
 Node-503            	1721.0      	0.0         	                	;
 Node-504            	1719.0      	0.0         	                	;
 Node-505            	1718.0      	0.0         	                	;
 Node-506            	1718.0      	0.0         	                	;
 Node-507            	1718.0      	0.0         	                	;
 Node-508            	1717.0      	0.0         	                	;
 Node-509            	1717.0      	0.0         	                	;
 Node-510            	1715.0      	0.0         	                	;
 Node-511            	1716.0      	0.0         	                	;
 Node-512            	1715.0      	0.0         	                	;
 Node-513            	1714.0      	0.0         	                	;
 Node-514            	1713.0      	0.0         	                	;