[TITLE]
20416 Sovu(QuartieIndustriel) WSS in Huye District

[JUNCTIONS]
;ID                  	Elev        	Demand      	Pattern         
 Node-345            	1784.0      	0.0         	                	;
 Node-2              	1784.0      	0.0         	                	;
 Node-37             	1783.0      	0.0         	                	;
 Node-414            	1773.0      	0.0         	                	;
 Node-5              	1773.0      	0.0         	                	;
 Node-6              	1770.0      	0.0         	                	;
 Node-7              	1770.0      	0.0         	                	;
 Node-8              	1769.0      	0.0         	                	;
 Node-9              	1768.0      	0.0         	                	;
 Node-10             	1767.0      	0.0         	                	;
 Node-11             	1766.0      	0.0         	                	;
 Node-12             	1765.0      	0.0         	                	;
 Node-13             	1764.0      	0.0         	                	;
 Node-14             	1764.0      	0.0         	                	;
 Node-18             	1763.0      	0.0         	                	;
 Node-16             	1763.0      	0.0         	                	;
 Node-17             	1762.0      	0.0         	                	;
 Node-19             	1763.0      	0.0         	                	;
 Node-20             	1761.0      	0.0         	                	;
 Node-21             	1761.0      	0.0         	                	;
 Node-22             	1760.0      	0.0         	                	;
 Node-23             	1761.0      	0.0         	                	;
 Node-24             	1762.0      	0.0         	                	;
 Node-25             	1762.0      	0.0         	                	;
 Node-384            	1776.0      	0.0         	                	;
 Node-27             	1777.0      	0.006481481 	                	;
 Node-29             	1824.0      	0.0         	                	;
 Node-30             	1819.0      	0.0         	                	;
 Node-31             	1820.0      	0.0         	                	;
 Node-32             	1822.0      	0.0         	                	;
 Node-160            	1818.0      	0.0         	                	;
 Node-35             	1785.0      	0.0         	                	;
 Node-36             	1784.0      	0.0         	                	;
 Node-38             	1781.0      	0.0         	                	;
 Node-39             	1780.0      	0.0         	                	;
 Node-40             	1779.0      	0.0         	                	;
 Node-41             	1777.0      	0.0         	                	;
 Node-42             	1775.0      	0.0         	                	;
 Node-43             	1774.0      	0.0         	                	;
 Node-44             	1771.0      	0.0         	                	;
 Node-45             	1770.0      	0.0         	                	;
 Node-130            	1777.0      	0.0         	                	;
 Node-47             	1776.0      	0.0         	                	;
 Node-48             	1777.0      	0.0         	                	;
 Node-49             	1775.0      	0.015740741 	                	;
 Node-51             	1818.0      	0.0         	                	;
 Node-52             	1818.0      	0.0         	                	;
 Node-53             	1816.0      	0.0         	                	;
 Node-54             	1812.0      	0.0         	                	;
 Node-55             	1811.0      	0.0         	                	;
 Node-56             	1811.0      	0.0         	                	;
 Node-57             	1811.0      	0.0         	                	;
 Node-58             	1808.0      	0.0         	                	;
 Node-59             	1808.0      	0.0         	                	;
 Node-60             	1808.0      	0.0         	                	;
 Node-61             	1805.0      	0.0         	                	;
 Node-62             	1805.0      	0.0         	                	;
 Node-63             	1805.0      	0.0         	                	;
 Node-64             	1805.0      	0.0         	                	;
 Node-65             	1806.0      	0.0         	                	;
 Node-66             	1807.0      	0.0         	                	;
 Node-67             	1803.0      	0.0         	                	;
 Node-68             	1803.0      	0.0         	                	;
 Node-69             	1803.0      	0.0         	                	;
 Node-70             	1803.0      	0.0         	                	;
 Node-71             	1803.0      	0.0         	                	;
 Node-72             	1803.0      	0.0         	                	;
 Node-73             	1804.0      	0.0         	                	;
 Node-74             	1804.0      	0.0         	                	;
 Node-75             	1804.0      	0.0         	                	;
 Node-76             	1804.0      	0.0         	                	;
 Node-77             	1806.0      	0.0         	                	;
 Node-78             	1806.0      	0.0         	                	;
 Node-79             	1806.0      	0.0         	                	;
 Node-80             	1807.0      	0.0         	                	;
 Node-81             	1804.0      	0.0         	                	;
 Node-82             	1806.0      	0.0         	                	;
 Node-659            	1778.0      	0.0         	                	;
 Node-84             	1776.0      	0.0         	                	;
 Node-85             	1777.0      	0.0         	                	;
 Node-86             	1781.0      	0.0         	                	;
 Node-87             	1780.0      	0.0         	                	;
 Node-88             	1783.0      	0.0         	                	;
 Node-89             	1785.0      	0.0         	                	;
 Node-90             	1786.0      	0.0         	                	;
 Node-91             	1783.0      	0.0         	                	;
 Node-92             	1785.0      	0.0         	                	;
 Node-93             	1785.0      	0.0         	                	;
 Node-94             	1786.0      	0.0         	                	;
 Node-95             	1787.0      	0.0         	                	;
 Node-96             	1787.0      	0.0         	                	;
 Node-97             	1787.0      	0.0         	                	;
 Node-98             	1785.0      	0.0         	                	;
 Node-99             	1785.0      	0.0         	                	;
 Node-100            	1786.0      	0.0         	                	;
 Node-101            	1786.0      	0.0         	                	;
 Node-102            	1785.0      	0.0         	                	;
 Node-103            	1786.0      	0.0         	                	;
 Node-104            	1786.0      	0.0         	                	;
 Node-105            	1785.0      	0.0         	                	;
 Node-106            	1784.0      	0.0         	                	;
 Node-107            	1785.0      	0.0         	                	;
 Node-108            	1786.0      	0.0         	                	;
 Node-109            	1785.0      	0.0         	                	;
 Node-110            	1785.0      	0.0         	                	;
 Node-111            	1786.0      	0.0         	                	;
 Node-112            	1786.0      	0.0         	                	;
 Node-113            	1786.0      	0.0         	                	;
 Node-114            	1786.0      	0.0         	                	;
 Node-115            	1786.0      	0.0         	                	;
 Node-116            	1786.0      	0.0         	                	;
 Node-117            	1786.0      	0.0         	                	;
 Node-120            	1785.0      	0.0         	                	;
 Node-121            	1784.0      	0.0         	                	;
 Node-122            	1782.0      	0.0         	                	;
 Node-123            	1782.0      	0.0         	                	;
 Node-124            	1780.0      	0.0         	                	;
 Node-125            	1780.0      	0.0         	                	;
 Node-126            	1780.0      	0.0         	                	;
 Node-127            	1780.0      	0.0         	                	;
 Node-128            	1778.0      	0.0         	                	;
 Node-129            	1777.0      	0.0         	                	;
 Node-132            	1834.0      	0.0         	                	;
 Node-134            	1833.0      	0.0         	                	;
 Node-135            	1832.0      	0.0         	                	;
 Node-136            	1832.0      	0.0         	                	;
 Node-137            	1832.0      	0.0         	                	;
 Node-138            	1830.0      	0.0         	                	;
 Node-139            	1830.0      	0.0         	                	;
 Node-140            	1829.0      	0.0         	                	;
 Node-141            	1828.0      	0.0         	                	;
 Node-142            	1829.0      	0.0         	                	;
 Node-143            	1829.0      	0.0         	                	;
 Node-144            	1829.0      	0.0         	                	;
 Node-145            	1828.0      	0.0         	                	;
 Node-146            	1828.0      	0.0         	                	;
 Node-147            	1825.0      	0.0         	                	;
 Node-148            	1821.0      	0.0         	                	;
 Node-149            	1820.0      	0.0         	                	;
 Node-150            	1819.0      	0.0         	                	;
 Node-151            	1820.0      	0.0         	                	;
 Node-152            	1822.0      	0.0         	                	;
 Node-155            	1821.0      	0.0         	                	;
 Node-156            	1820.0      	0.0         	                	;
 Node-157            	1819.0      	0.0         	                	;
 Node-158            	1820.0      	0.0         	                	;
 Node-159            	1822.0      	0.0         	                	;
 Node-535            	1853.0      	0.0         	                	;
 Node-162            	1852.0      	0.0         	                	;
 Node-163            	1851.0      	0.0         	                	;
 Node-164            	1848.0      	0.0         	                	;
 Node-165            	1849.0      	0.0         	                	;
 Node-166            	1845.0      	0.0         	                	;
 Node-441            	1845.0      	0.0         	                	;
 Node-585            	1909.0      	0.0         	                	;
 Node-169            	1908.0      	0.0         	                	;
 Node-170            	1906.0      	0.0         	                	;
 Node-171            	1906.0      	0.0         	                	;
 Node-172            	1903.0      	0.0         	                	;
 Node-173            	1903.0      	0.0         	                	;
 Node-174            	1904.0      	0.0         	                	;
 Node-175            	1904.0      	0.0         	                	;
 Node-176            	1901.0      	0.0         	                	;
 Node-177            	1903.0      	0.0         	                	;
 Node-178            	1900.0      	0.0         	                	;
 Node-179            	1896.0      	0.0         	                	;
 Node-180            	1897.0      	0.0         	                	;
 Node-181            	1895.0      	0.0         	                	;
 Node-182            	1895.0      	0.0         	                	;
 Node-183            	1885.0      	0.0         	                	;
 Node-184            	1886.0      	0.0         	                	;
 Node-185            	1881.0      	0.0         	                	;
 Node-186            	1877.0      	0.0         	                	;
 Node-187            	1876.0      	0.0         	                	;
 Node-188            	1871.0      	0.0         	                	;
 Node-189            	1871.0      	0.0         	                	;
 Node-190            	1871.0      	0.0         	                	;
 Node-191            	1866.0      	0.0         	                	;
 Node-192            	1861.0      	0.0         	                	;
 Node-193            	1860.0      	0.0         	                	;
 Node-194            	1860.0      	0.0         	                	;
 Node-195            	1858.0      	0.0         	                	;
 Node-196            	1859.0      	0.0         	                	;
 Node-197            	1857.0      	0.0         	                	;
 Node-198            	1857.0      	0.0         	                	;
 Node-199            	1855.0      	0.0         	                	;
 Node-553            	1853.0      	0.0         	                	;
 Node-202            	1799.0      	0.0         	                	;
 Node-203            	1799.0      	0.0         	                	;
 Node-204            	1799.0      	0.0         	                	;
 Node-205            	1799.0      	0.0         	                	;
 Node-206            	1798.0      	0.0         	                	;
 Node-207            	1796.0      	0.0         	                	;
 Node-208            	1796.0      	0.0         	                	;
 Node-209            	1795.0      	0.0         	                	;
 Node-210            	1795.0      	0.0         	                	;
 Node-211            	1795.0      	0.0         	                	;
 Node-212            	1794.0      	0.0         	                	;
 Node-213            	1794.0      	0.0         	                	;
 Node-214            	1792.0      	0.0         	                	;
 Node-215            	1791.0      	0.0         	                	;
 Node-216            	1791.0      	0.0         	                	;
 Node-217            	1791.0      	0.0         	                	;
 Node-218            	1787.0      	0.0         	                	;
 Node-219            	1786.0      	0.0         	                	;
 Node-220            	1783.0      	0.0         	                	;
 Node-221            	1781.0      	0.0         	                	;
 Node-222            	1779.0      	0.0         	                	;
 Node-223            	1777.0      	0.0         	                	;
 Node-224            	1776.0      	0.0         	                	;
 Node-225            	1775.0      	0.0         	                	;
 Node-226            	1775.0      	0.0         	                	;
 Node-227            	1773.0      	0.0         	                	;
 Node-228            	1772.0      	0.0         	                	;
 Node-229            	1771.0      	0.0         	                	;
 Node-230            	1770.0      	0.0         	                	;
 Node-231            	1770.0      	0.0         	                	;
 Node-232            	1769.0      	0.0         	                	;
 Node-233            	1767.0      	0.0         	                	;
 Node-234            	1766.0      	0.0         	                	;
 Node-235            	1766.0      	0.0         	                	;
 Node-236            	1765.0      	0.0         	                	;
 Node-237            	1761.0      	0.0         	                	;
 Node-238            	1759.0      	0.0         	                	;
 Node-239            	1757.0      	0.0         	                	;
 Node-240            	1757.0      	0.0         	                	;
 Node-241            	1754.0      	0.0         	                	;
 Node-242            	1754.0      	0.0         	                	;
 Node-243            	1754.0      	0.0         	                	;
 Node-244            	1753.0      	0.0         	                	;
 Node-245            	1752.0      	0.0         	                	;
 Node-246            	1756.0      	0.0         	                	;
 Node-247            	1756.0      	0.0         	                	;
 Node-248            	1756.0      	0.0         	                	;
 Node-249            	1760.0      	0.0         	                	;
 Node-250            	1764.0      	0.0         	                	;
 Node-282            	1764.0      	0.0         	                	;
 Node-252            	1766.0      	0.0         	                	;
 Node-253            	1766.0      	0.0         	                	;
 Node-254            	1766.0      	0.0         	                	;
 Node-255            	1766.0      	0.0         	                	;
 Node-256            	1766.0      	0.0         	                	;
 Node-257            	1766.0      	0.0         	                	;
 Node-258            	1766.0      	0.0         	                	;
 Node-259            	1763.0      	0.0         	                	;
 Node-260            	1761.0      	0.0         	                	;
 Node-261            	1761.0      	0.0         	                	;
 Node-262            	1759.0      	0.0         	                	;
 Node-263            	1758.0      	0.0         	                	;
 Node-264            	1757.0      	0.0         	                	;
 Node-265            	1756.0      	0.0         	                	;
 Node-266            	1753.0      	0.0         	                	;
 Node-267            	1753.0      	0.0         	                	;
 Node-268            	1753.0      	0.0         	                	;
 Node-269            	1752.0      	0.0         	                	;
 Node-270            	1751.0      	0.0         	                	;
 Node-271            	1749.0      	0.0         	                	;
 Node-272            	1748.0      	0.0         	                	;
 Node-273            	1748.0      	0.0         	                	;
 Node-274            	1749.0      	0.0         	                	;
 Node-275            	1750.0      	0.0         	                	;
 Node-276            	1751.0      	0.0         	                	;
 Node-277            	1752.0      	0.0         	                	;
 Node-278            	1752.0      	0.0         	                	;
 Node-279            	1752.0      	0.0         	                	;
 Node-280            	1753.0      	0.0         	                	;
 Node-281            	1753.0      	0.0         	                	;
 Node-283            	1764.0      	0.0         	                	;
 Node-284            	1764.0      	0.0         	                	;
 Node-285            	1764.0      	0.0         	                	;
 Node-352            	1784.0      	0.0         	                	;
 Node-287            	1783.0      	0.0         	                	;
 Node-288            	1781.0      	0.0         	                	;
 Node-289            	1778.0      	0.0         	                	;
 Node-290            	1776.0      	0.0         	                	;
 Node-291            	1773.0      	0.0         	                	;
 Node-292            	1771.0      	0.0         	                	;
 Node-293            	1769.0      	0.0         	                	;
 Node-294            	1769.0      	0.0         	                	;
 Node-295            	1768.0      	0.0         	                	;
 Node-524            	1819.0      	0.0         	                	;
 Node-297            	1820.0      	0.0         	                	;
 Node-298            	1820.0      	0.0         	                	;
 Node-299            	1820.0      	0.0         	                	;
 Node-300            	1819.0      	0.0         	                	;
 Node-301            	1819.0      	0.0         	                	;
 Node-302            	1820.0      	0.0         	                	;
 Node-303            	1819.0      	0.0         	                	;
 Node-304            	1818.0      	0.0         	                	;
 Node-305            	1818.0      	0.0         	                	;
 Node-306            	1818.0      	0.0         	                	;
 Node-307            	1817.0      	0.0         	                	;
 Node-308            	1817.0      	0.0         	                	;
 Node-309            	1817.0      	0.0         	                	;
 Node-310            	1815.0      	0.0         	                	;
 Node-311            	1816.0      	0.0         	                	;
 Node-312            	1814.0      	0.0         	                	;
 Node-313            	1813.0      	0.0         	                	;
 Node-314            	1812.0      	0.0         	                	;
 Node-315            	1810.0      	0.0         	                	;
 Node-316            	1811.0      	0.0         	                	;
 Node-317            	1810.0      	0.0         	                	;
 Node-318            	1810.0      	0.0         	                	;
 Node-319            	1809.0      	0.0         	                	;
 Node-320            	1809.0      	0.0         	                	;
 Node-321            	1809.0      	0.0         	                	;
 Node-322            	1808.0      	0.0         	                	;
 Node-323            	1808.0      	0.0         	                	;
 Node-324            	1807.0      	0.0         	                	;
 Node-325            	1808.0      	0.0         	                	;
 Node-326            	1808.0      	0.0         	                	;
 Node-327            	1807.0      	0.0         	                	;
 Node-328            	1806.0      	0.0         	                	;
 Node-329            	1806.0      	0.0         	                	;
 Node-330            	1805.0      	0.0         	                	;
 Node-331            	1804.0      	0.0         	                	;
 Node-332            	1803.0      	0.0         	                	;
 Node-333            	1802.0      	0.0         	                	;
 Node-334            	1801.0      	0.0         	                	;
 Node-335            	1801.0      	0.0         	                	;
 Node-338            	1800.0      	0.0         	                	;
 Node-339            	1799.0      	0.0         	                	;
 Node-340            	1796.0      	0.0         	                	;
 Node-341            	1794.0      	0.0         	                	;
 Node-342            	1792.0      	0.0         	                	;
 Node-343            	1789.0      	0.0         	                	;
 Node-344            	1787.0      	0.0         	                	;
 Node-346            	1784.0      	0.0         	                	;
 Node-347            	1784.0      	0.0         	                	;
 Node-348            	1784.0      	0.0         	                	;
 Node-349            	1785.0      	0.0         	                	;
 Node-350            	1784.0      	0.0         	                	;
 Node-351            	1784.0      	0.0         	                	;
 Node-353            	1784.0      	0.0         	                	;
 Node-354            	1783.0      	0.0         	                	;
 Node-355            	1783.0      	0.0         	                	;
 Node-356            	1784.0      	0.0         	                	;
 Node-357            	1783.0      	0.0         	                	;
 Node-358            	1782.0      	0.0         	                	;
 Node-359            	1781.0      	0.0         	                	;
 Node-360            	1781.0      	0.0         	                	;
 Node-361            	1782.0      	0.0         	                	;
 Node-362            	1782.0      	0.0         	                	;
 Node-363            	1781.0      	0.0         	                	;
 Node-364            	1782.0      	0.0         	                	;
 Node-365            	1781.0      	0.0         	                	;
 Node-366            	1782.0      	0.0         	                	;
 Node-367            	1780.0      	0.0         	                	;
 Node-368            	1779.0      	0.0         	                	;
 Node-369            	1779.0      	0.0         	                	;
 Node-370            	1779.0      	0.0         	                	;
 Node-371            	1780.0      	0.0         	                	;
 Node-372            	1780.0      	0.0         	                	;
 Node-373            	1777.0      	0.0         	                	;
 Node-374            	1777.0      	0.0         	                	;
 Node-375            	1776.0      	0.0         	                	;
 Node-376            	1776.0      	0.0         	                	;
 Node-377            	1776.0      	0.0         	                	;
 Node-378            	1777.0      	0.0         	                	;
 Node-379            	1777.0      	0.0         	                	;
 Node-380            	1777.0      	0.0         	                	;
 Node-381            	1777.0      	0.0         	                	;
 Node-382            	1776.0      	0.0         	                	;
 Node-383            	1777.0      	0.0         	                	;
 Node-385            	1775.0      	0.0         	                	;
 Node-386            	1776.0      	0.0         	                	;
 Node-387            	1775.0      	0.0         	                	;
 Node-388            	1775.0      	0.0         	                	;
 Node-389            	1776.0      	0.0         	                	;
 Node-394            	1775.0      	0.0         	                	;
 Node-392            	1775.0      	0.0         	                	;
 Node-393            	1775.0      	0.0         	                	;
 Node-395            	1774.0      	0.0         	                	;
 Node-396            	1775.0      	0.0         	                	;
 Node-397            	1775.0      	0.0         	                	;
 Node-398            	1776.0      	0.0         	                	;
 Node-399            	1777.0      	0.0         	                	;
 Node-400            	1777.0      	0.0         	                	;
 Node-401            	1777.0      	0.0         	                	;
 Node-402            	1777.0      	0.0         	                	;
 Node-403            	1776.0      	0.0         	                	;
 Node-404            	1776.0      	0.0         	                	;
 Node-405            	1777.0      	0.0         	                	;
 Node-406            	1776.0      	0.0         	                	;
 Node-407            	1776.0      	0.0         	                	;
 Node-408            	1776.0      	0.0         	                	;
 Node-409            	1776.0      	0.0         	                	;
 Node-410            	1775.0      	0.0         	                	;
 Node-411            	1775.0      	0.0         	                	;
 Node-412            	1775.0      	0.0         	                	;
 Node-413            	1774.0      	0.0         	                	;
 Node-415            	1773.0      	0.0         	                	;
 Node-417            	1846.0      	0.0         	                	;
 Node-418            	1845.0      	0.0         	                	;
 Node-636            	1865.0      	0.0         	                	;
 Node-421            	1860.0      	0.0         	                	;
 Node-422            	1860.0      	0.0         	                	;
 Node-423            	1858.0      	0.0         	                	;
 Node-424            	1856.0      	0.0         	                	;
 Node-425            	1855.0      	0.0         	                	;
 Node-426            	1855.0      	0.0         	                	;
 Node-427            	1854.0      	0.0         	                	;
 Node-428            	1853.0      	0.0         	                	;
 Node-429            	1851.0      	0.0         	                	;
 Node-430            	1849.0      	0.0         	                	;
 Node-431            	1848.0      	0.0         	                	;
 Node-432            	1846.0      	0.0         	                	;
 Node-433            	1847.0      	0.0         	                	;
 Node-434            	1847.0      	0.0         	                	;
 Node-435            	1847.0      	0.0         	                	;
 Node-436            	1847.0      	0.0         	                	;
 Node-437            	1846.0      	0.0         	                	;
 Node-438            	1846.0      	0.0         	                	;
 Node-439            	1845.0      	0.0         	                	;
 Node-442            	1842.0      	0.0         	                	;
 Node-443            	1842.0      	0.0         	                	;
 Node-444            	1841.0      	0.0         	                	;
 Node-445            	1838.0      	0.0         	                	;
 Node-446            	1838.0      	0.0         	                	;
 Node-447            	1838.0      	0.0         	                	;
 Node-448            	1838.0      	0.0         	                	;
 Node-449            	1837.0      	0.0         	                	;
 Node-450            	1836.0      	0.0         	                	;
 Node-451            	1838.0      	0.0         	                	;
 Node-452            	1837.0      	0.0         	                	;
 Node-453            	1837.0      	0.0         	                	;
 Node-454            	1837.0      	0.0         	                	;
 Node-455            	1835.0      	0.0         	                	;
 Node-456            	1835.0      	0.0         	                	;
 Node-457            	1832.0      	0.0         	                	;
 Node-458            	1831.0      	0.0         	                	;
 Node-459            	1832.0      	0.0         	                	;
 Node-460            	1833.0      	0.0         	                	;
 Node-461            	1834.0      	0.0         	                	;
 Node-462            	1830.0      	0.0         	                	;
 Node-463            	1831.0      	0.0         	                	;
 Node-464            	1832.0      	0.0         	                	;
 Node-465            	1828.0      	0.0         	                	;
 Node-466            	1828.0      	0.0         	                	;
 Node-467            	1827.0      	0.0         	                	;
 Node-468            	1828.0      	0.0         	                	;
 Node-469            	1828.0      	0.0         	                	;
 Node-470            	1828.0      	0.0         	                	;
 Node-471            	1828.0      	0.0         	                	;
 Node-472            	1827.0      	0.0         	                	;