[TITLE]
2041 Karambi-Kanyinya-Gasumba WSS in Huye District

[JUNCTIONS]
;ID                  	Elev        	Demand      	Pattern         
 Node-2              	1769.0      	0.0         	                	;
 Node-3              	1769.0      	0.0         	                	;
 Node-4              	1766.0      	0.0         	                	;
 Node-5              	1763.0      	0.0         	                	;
 Node-6              	1762.0      	0.0         	                	;
 Node-7              	1763.0      	0.0         	                	;
 Node-8              	1760.0      	0.0         	                	;
 Node-9              	1762.0      	0.0         	                	;
 Node-10             	1758.0      	0.0         	                	;
 Node-11             	1757.0      	0.0         	                	;
 Node-12             	1756.0      	0.0         	                	;
 Node-186            	1753.0      	0.0         	                	;
 Node-14             	1753.0      	0.0         	                	;
 Node-15             	1752.0      	0.0         	                	;
 Node-183            	1751.0      	0.0         	                	;
 Node-17             	1748.0      	0.0         	                	;
 Node-18             	1745.0      	0.0         	                	;
 Node-189            	1745.0      	0.0         	                	;
 Node-20             	1743.0      	0.0         	                	;
 Node-21             	1741.0      	0.0         	                	;
 Node-22             	1739.0      	0.0         	                	;
 Node-118            	1739.0      	0.0         	                	;
 Node-24             	1737.0      	0.0         	                	;
 Node-25             	1739.0      	0.0         	                	;
 Node-168            	1738.0      	0.0         	                	;
 Node-272            	1739.0      	0.0         	                	;
 Node-324            	1742.0      	0.0         	                	;
 Node-29             	1732.0      	0.0         	                	;
 Node-30             	1726.0      	0.0         	                	;
 Node-31             	1721.0      	0.0         	                	;
 Node-32             	1720.0      	0.0         	                	;
 Node-33             	1719.0      	0.0         	                	;
 Node-34             	1716.0      	0.0         	                	;
 Node-35             	1710.0      	0.0         	                	;
 Node-36             	1707.0      	0.0         	                	;
 Node-37             	1713.0      	0.0         	                	;
 Node-38             	1715.0      	0.0         	                	;
 Node-39             	1715.0      	0.0         	                	;
 Node-40             	1715.0      	0.0         	                	;
 Node-41             	1710.0      	0.0         	                	;
 Node-42             	1703.0      	0.0         	                	;
 Node-43             	1705.0      	0.0         	                	;
 Node-44             	1690.0      	0.0         	                	;
 Node-45             	1681.0      	0.0         	                	;
 Node-46             	1670.0      	0.0         	                	;
 Node-47             	1666.0      	0.0         	                	;
 Node-48             	1663.0      	0.0         	                	;
 Node-49             	1663.0      	0.0         	                	;
 Node-51             	1659.0      	0.0         	                	;
 Node-52             	1657.0      	0.0         	                	;
 Node-53             	1638.0      	0.0         	                	;
 Node-54             	1629.0      	0.0         	                	;
 Node-56             	1624.0      	0.0         	                	;
 Node-57             	1625.0      	0.0         	                	;
 Node-58             	1625.0      	0.0         	                	;
 Node-59             	1625.0      	0.0         	                	;
 Node-60             	1625.0      	0.0         	                	;
 Node-61             	1624.0      	0.0         	                	;
 Node-62             	1626.0      	0.0         	                	;
 Node-63             	1635.0      	0.0         	                	;
 Node-64             	1632.0      	0.0         	                	;
 Node-65             	1634.0      	0.0         	                	;
 Node-66             	1652.0      	0.0         	                	;
 Node-67             	1671.0      	0.0         	                	;
 Node-68             	1679.0      	0.0         	                	;
 Node-69             	1683.0      	0.0         	                	;
 Node-70             	1690.0      	0.0         	                	;
 Node-71             	1696.0      	0.0         	                	;
 Node-72             	1702.0      	0.0         	                	;
 Node-73             	1705.0      	0.0         	                	;
 Node-74             	1714.0      	0.0         	                	;
 Node-75             	1717.0      	0.0         	                	;
 Node-76             	1724.0      	0.0         	                	;
 Node-77             	1727.0      	0.0         	                	;
 Node-78             	1729.0      	0.0         	                	;
 Node-198            	1726.0      	0.0         	                	;
 Node-80             	1727.0      	0.0         	                	;
 Node-81             	1727.0      	0.00462963  	                	;
 Node-199            	1727.0      	0.0         	                	;
 Node-83             	1728.0      	0.0         	                	;
 Node-84             	1728.0      	0.005555556 	                	;
 Node-221            	1731.0      	0.0         	                	;
 Node-86             	1733.0      	0.0         	                	;
 Node-87             	1739.0      	0.007407407 	                	;
 Node-358            	1729.0      	0.0         	                	;
 Node-89             	1729.0      	0.003703704 	                	;
 Node-224            	1739.0      	0.0         	                	;
 Node-91             	1736.0      	0.006481481 	                	;
 Node-210            	1725.0      	0.0         	                	;
 Node-93             	1726.0      	0.00462963  	                	;
 Node-94             	1726.0      	0.003703704 	                	;
 Node-95             	1726.0      	0.0         	                	;
 Node-211            	1726.0      	0.0         	                	;
 Node-212            	1726.0      	0.0         	                	;
 Node-98             	1726.0      	0.00462963  	                	;
 Node-214            	1726.0      	0.0         	                	;
 Node-100            	1726.0      	0.0         	                	;
 Node-101            	1726.0      	0.00462963  	                	;
 Node-201            	1730.0      	0.0         	                	;
 Node-103            	1728.0      	0.0         	                	;
 Node-104            	1728.0      	0.00462963  	                	;
 Node-204            	1730.0      	0.0         	                	;
 Node-106            	1733.0      	0.0         	                	;
 Node-107            	1736.0      	0.0         	                	;
 Node-108            	1736.0      	0.002777778 	                	;
 Node-207            	1726.0      	0.0         	                	;
 Node-110            	1726.0      	0.009259259 	                	;
 Node-209            	1725.0      	0.0         	                	;
 Node-112            	1726.0      	0.00462963  	                	;
 Node-196            	1727.0      	0.0         	                	;
 Node-114            	1726.0      	0.0         	                	;
 Node-115            	1727.0      	0.555555556 	                	;
 Node-197            	1727.0      	0.0         	                	;
 Node-117            	1728.0      	0.005555556 	                	;
 Node-119            	1737.0      	0.0         	                	;
 Node-120            	1737.0      	0.002777778 	                	;
 Node-121            	1734.0      	0.003703704 	                	;
 Node-122            	1734.0      	0.0         	                	;
 Node-267            	1732.0      	0.0         	                	;
 Node-269            	1730.0      	0.0         	                	;
 Node-125            	1729.0      	0.0         	                	;
 Node-128            	1729.0      	0.0         	                	;
 Node-127            	1729.0      	0.003703704 	                	;
 Node-129            	1727.0      	0.0         	                	;
 Node-130            	1724.0      	0.0         	                	;
 Node-131            	1721.0      	0.005555556 	                	;
 Node-270            	1729.0      	0.0         	                	;
 Node-133            	1732.0      	0.006481481 	                	;
 Node-259            	1751.0      	0.0         	                	;
 Node-135            	1752.0      	0.002777778 	                	;
 Node-263            	1743.0      	0.0         	                	;
 Node-137            	1744.0      	0.005555556 	                	;
 Node-138            	1737.0      	0.006481481 	                	;
 Node-139            	1736.0      	0.0         	                	;
 Node-140            	1738.0      	0.0         	                	;
 Node-141            	1739.0      	0.0         	                	;
 Node-142            	1738.0      	0.0         	                	;
 Node-265            	1738.0      	0.0         	                	;
 Node-144            	1735.0      	0.005555556 	                	;
 Node-145            	1736.0      	0.0         	                	;
 Node-266            	1735.0      	0.0         	                	;
 Node-147            	1748.0      	0.003703704 	                	;
 Node-148            	1745.0      	0.0         	                	;
 Node-275            	1742.0      	0.0         	                	;
 Node-252            	1764.0      	0.0         	                	;
 Node-151            	1764.0      	0.0         	                	;
 Node-152            	1766.0      	0.005555556 	                	;
 Node-255            	1759.0      	0.0         	                	;
 Node-154            	1759.0      	0.0         	                	;
 Node-155            	1759.0      	0.00462963  	                	;
 Node-258            	1752.0      	0.0         	                	;
 Node-157            	1753.0      	0.003703704 	                	;
 Node-285            	1726.0      	0.0         	                	;
 Node-159            	1727.0      	0.555555556 	                	;
 Node-293            	1716.0      	0.0         	                	;
 Node-161            	1716.0      	0.005555556 	                	;
 Node-162            	1716.0      	1.401851852 	                	;
 Node-163            	1715.0      	0.0         	                	;
 Node-302            	1712.0      	0.0         	                	;
 Node-305            	1714.0      	0.0         	                	;
 Node-166            	1714.0      	0.0         	                	;
 Node-167            	1714.0      	0.00462963  	                	;
 Node-169            	1738.0      	0.0         	                	;
 Node-170            	1737.0      	0.002777778 	                	;
 Node-273            	1741.0      	0.0         	                	;
 Node-172            	1741.0      	0.0         	                	;
 Node-173            	1739.0      	0.006481481 	                	;
 Node-276            	1746.0      	0.0         	                	;
 Node-175            	1748.0      	0.0         	                	;
 Node-176            	1755.0      	0.008333333 	                	;
 Node-284            	1727.0      	0.0         	                	;
 Node-178            	1726.0      	0.0         	                	;
 Node-179            	1726.0      	0.0         	                	;
 Node-180            	1729.0      	0.0         	                	;
 Node-181            	1732.0      	0.0         	                	;
 Node-182            	1738.0      	0.00462963  	                	;
 Node-184            	1750.0      	0.0         	                	;
 Node-185            	1749.0      	0.462962963 	                	;
 Node-187            	1753.0      	0.0         	                	;
 Node-188            	1749.0      	0.003703704 	                	;
 Node-190            	1744.0      	0.005555556 	                	;
 Node-192            	1769.0      	0.0         	                	;
 Node-193            	1767.0      	0.0         	                	;
 Node-194            	1765.0      	0.555555556 	                	;
 Node-271            	1727.0      	0.0         	                	;
 Node-200            	1728.0      	0.0         	                	;
 Node-202            	1730.0      	0.0         	                	;
 Node-203            	1730.0      	0.0         	                	;
 Node-205            	1729.0      	0.0         	                	;
 Node-206            	1728.0      	0.0         	                	;
 Node-208            	1725.0      	0.0         	                	;
 Node-213            	1726.0      	0.0         	                	;
 Node-215            	1727.0      	0.0         	                	;
 Node-216            	1727.0      	0.0         	                	;
 Node-367            	1727.0      	0.0         	                	;
 Node-218            	1727.0      	0.0         	                	;
 Node-219            	1728.0      	0.0         	                	;
 Node-360            	1730.0      	0.0         	                	;
 Node-222            	1736.0      	0.0         	                	;
 Node-223            	1737.0      	0.0         	                	;
 Node-225            	1740.0      	0.0         	                	;
 Node-226            	1741.0      	0.0         	                	;
 Node-227            	1743.0      	0.0         	                	;
 Node-361            	1745.0      	0.0         	                	;
 Node-229            	1745.0      	0.0         	                	;
 Node-231            	1744.0      	0.0         	                	;
 Node-232            	1740.0      	0.0         	                	;
 Node-233            	1733.0      	0.0         	                	;
 Node-234            	1727.0      	0.0         	                	;
 Node-235            	1724.0      	0.0         	                	;
 Node-236            	1720.0      	0.0         	                	;
 Node-363            	1716.0      	0.0         	                	;
 Node-238            	1713.0      	0.0         	                	;
 Node-239            	1711.0      	0.0         	                	;
 Node-240            	1708.0      	0.0         	                	;
 Node-365            	1705.0      	0.0         	                	;
 Node-327            	1704.0      	0.0         	                	;
 Node-243            	1733.0      	0.0         	                	;
 Node-244            	1761.0      	0.0         	                	;
 Node-247            	1769.0      	0.0         	                	;
 Node-248            	1768.0      	0.0         	                	;
 Node-249            	1766.0      	0.0         	                	;
 Node-250            	1765.0      	0.0         	                	;
 Node-251            	1764.0      	0.0         	                	;
 Node-253            	1761.0      	0.0         	                	;
 Node-254            	1760.0      	0.0         	                	;
 Node-256            	1755.0      	0.0         	                	;
 Node-257            	1753.0      	0.0         	                	;
 Node-260            	1749.0      	0.0         	                	;
 Node-261            	1747.0      	0.0         	                	;
 Node-262            	1745.0      	0.0         	                	;
 Node-264            	1741.0      	0.0         	                	;
 Node-268            	1732.0      	0.0         	                	;
 Node-274            	1745.0      	0.0         	                	;
 Node-277            	1742.0      	0.0         	                	;
 Node-278            	1735.0      	0.0         	                	;
 Node-279            	1733.0      	0.0         	                	;
 Node-280            	1734.0      	0.0         	                	;
 Node-281            	1730.0      	0.0         	                	;
 Node-282            	1728.0      	0.0         	                	;
 Node-283            	1727.0      	0.0         	                	;
 Node-286            	1724.0      	0.0         	                	;
 Node-287            	1724.0      	0.0         	                	;
 Node-288            	1723.0      	0.0         	                	;
 Node-289            	1723.0      	0.0         	                	;
 Node-290            	1723.0      	0.0         	                	;
 Node-291            	1720.0      	0.0         	                	;
 Node-292            	1719.0      	0.0         	                	;
 Node-294            	1713.0      	0.0         	                	;
 Node-295            	1713.0      	0.0         	                	;
 Node-296            	1711.0      	0.0         	                	;
 Node-297            	1712.0      	0.0         	                	;
 Node-298            	1709.0      	0.0         	                	;
 Node-299            	1706.0      	0.0         	                	;
 Node-300            	1705.0      	0.0         	                	;
 Node-301            	1710.0      	0.0         	                	;
 Node-303            	1712.0      	0.0         	                	;
 Node-304            	1713.0      	0.0         	                	;
 Node-306            	1713.0      	0.0         	                	;
 Node-307            	1713.0      	0.555555556 	                	;
 Node-309            	1817.0      	0.0         	                	;
 Node-311            	1809.0      	0.0         	                	;
 Node-312            	1803.0      	0.0         	                	;
 Node-313            	1801.0      	0.0         	                	;
 Node-314            	1808.0      	0.0         	                	;
 Node-315            	1816.0      	0.0         	                	;
 Node-316            	1813.0      	0.0         	                	;
 Node-317            	1809.0      	0.0         	                	;
 Node-318            	1801.0      	0.0         	                	;
 Node-319            	1783.0      	0.0         	                	;
 Node-320            	1781.0      	0.0         	                	;
 Node-321            	1769.0      	0.0         	                	;
 Node-322            	1758.0      	0.0         	                	;
 Node-323            	1758.0      	0.0         	                	;
 Node-328            	1705.0      	0.0         	                	;
 Node-326            	1703.0      	0.555555556 	                	;
 Node-329            	1707.0      	0.0         	                	;
 Node-330            	1713.0      	0.0         	                	;
 Node-331            	1719.0      	0.0         	                	;
 Node-332            	1719.0      	0.0         	                	;
 Node-333            	1724.0      	0.0         	                	;
 Node-334            	1736.0      	0.0         	                	;
 Node-335            	1736.0      	0.0         	                	;
 Node-346            	1735.0      	0.0         	                	;
 Node-337            	1730.0      	0.0         	                	;
 Node-338            	1728.0      	0.0         	                	;
 Node-343            	1729.0      	0.0         	                	;
 Node-340            	1732.0      	0.0         	                	;
 Node-341            	1738.0      	0.0         	                	;
 Node-342            	1738.0      	0.555555556 	                	;
 Node-344            	1736.0      	0.00462963  	                	;
 Node-345            	1739.0      	0.006481481 	                	;
 Node-347            	1725.0      	0.009259259 	                	;
 Node-348            	1726.0      	0.0         	                	;
 Node-349            	1726.0      	0.0         	                	;
 Node-350            	1726.0      	0.0         	                	;
 Node-351            	1728.0      	0.0         	                	;
 Node-352            	1731.0      	0.0         	                	;
 Node-353            	1732.0      	0.0         	                	;
 Node-354            	1732.0      	0.0         	                	;
 Node-355            	1731.0      	0.0         	                	;
 Node-356            	1730.0      	0.0         	                	;
 Node-357            	1731.0      	0.0         	                	;
 Node-359            	1729.0      	0.0         	                	;
 Node-362            	1747.0      	0.00462963  	                	;
 Node-364            	1716.0      	0.005555556 	                	;
 Node-366            	1707.0      	0.00462963  	                	;
 Node-368            	1727.0      	0.462962963 	                	;

[RESERVOIRS]
;ID                  	Head        	Pattern         
 Spring-5371         	1820        	                	;

[TANKS]
;ID                  	Elevation   	InitLevel   	MinLevel    	MaxLevel    	Diameter    	MinVol      	VolCurve
 Tank-19033          	1769        	0.75        	0.15000000000000002     	1.5         	5           	20.0        	                	;

[PIPES]
;ID                  	Node1               	Node2               	Length      	Diameter    	Roughness   	MinorLoss   	Status
 Pipe-109896-0       	Tank-19033          	Node-2              	0.284       	40          	100         	0           	Open  	;
 Pipe-109896-2       	Node-3              	Node-4              	33.738      	40          	100         	0           	Open  	;
 Pipe-109896-3       	Node-4              	Node-5              	48.624      	40          	100         	0           	Open  	;
 Pipe-109896-4       	Node-5              	Node-6              	56.601      	40          	100         	0           	Open  	;
 Pipe-109896-5       	Node-6              	Node-7              	78.772      	40          	100         	0           	Open  	;
 Pipe-109896-6       	Node-7              	Node-8              	72.574      	40          	100         	0           	Open  	;
 Pipe-109896-7       	Node-8              	Node-9              	46.928      	40          	100         	0           	Open  	;
 Pipe-109896-8       	Node-9              	Node-10             	32.624      	40          	100         	0           	Open  	;
 Pipe-109896-9       	Node-10             	Node-11             	20.696      	40          	100         	0           	Open  	;
 Pipe-109896-10      	Node-11             	Node-12             	25.359      	40          	100         	0           	Open  	;
 Pipe-109896-11      	Node-12             	Node-186            	34.93       	40          	100         	0           	Open  	;
 Pipe-109896-12      	Node-186            	Node-14             	25.144      	40          	100         	0           	Open  	;
 Pipe-109896-13      	Node-14             	Node-15             	25.239      	40          	100         	0           	Open  	;
 Pipe-109896-14      	Node-15             	Node-183            	23.679      	40          	100         	0           	Open  	;
 Pipe-109896-15      	Node-183            	Node-17             	23.784      	40          	100         	0           	Open  	;
 Pipe-109896-16      	Node-17             	Node-18             	21.125      	40          	100         	0           	Open  	;
 Pipe-109896-17      	Node-18             	Node-189            	19.198      	40          	100         	0           	Open  	;
 Pipe-109896-18      	Node-189            	Node-20             	22.903      	40          	100         	0           	Open  	;
 Pipe-109896-19      	Node-20             	Node-21             	37.492      	40          	100         	0           	Open  	;
 Pipe-109896-20      	Node-21             	Node-22             	41.938      	40          	100         	0           	Open  	;
 Pipe-109896-21      	Node-22             	Node-118            	32.999      	40          	100         	0           	Open  	;
 Pipe-109896-22      	Node-118            	Node-24             	24.162      	40          	100         	0           	Open  	;
 Pipe-109896-23      	Node-24             	Node-25             	19.427      	40          	100         	0           	Open  	;
 Pipe-109896-24      	Node-25             	Node-168            	28.036      	40          	100         	0           	Open  	;
 Pipe-109896-25      	Node-168            	Node-272            	34.621      	40          	100         	0           	Open  	;
 Pipe-109897-0       	Node-324            	Node-29             	66.228      	50          	100         	0           	Open  	;
 Pipe-109897-1       	Node-29             	Node-30             	48.076      	50          	100         	0           	Open  	;
 Pipe-109897-2       	Node-30             	Node-31             	35.221      	50          	100         	0           	Open  	;
 Pipe-109897-3       	Node-31             	Node-32             	28.814      	50          	100         	0           	Open  	;
 Pipe-109897-4       	Node-32             	Node-33             	31.581      	50          	100         	0           	Open  	;
 Pipe-109897-5       	Node-33             	Node-34             	26.142      	50          	100         	0           	Open  	;
 Pipe-109897-6       	Node-34             	Node-35             	42.971      	50          	100         	0           	Open  	;
 Pipe-109897-7       	Node-35             	Node-36             	36.09       	50          	100         	0           	Open  	;
 Pipe-109897-8       	Node-36             	Node-37             	21.853      	50          	100         	0           	Open  	;
 Pipe-109897-9       	Node-37             	Node-38             	37.133      	50          	100         	0           	Open  	;
 Pipe-109897-10      	Node-38             	Node-39             	20.987      	50          	100         	0           	Open  	;
 Pipe-109897-11      	Node-39             	Node-40             	31.122      	50          	100         	0           	Open  	;
 Pipe-109897-12      	Node-40             	Node-41             	49.481      	50          	100         	0           	Open  	;
 Pipe-109897-13      	Node-41             	Node-42             	64.805      	50          	100         	0           	Open  	;
 Pipe-109897-14      	Node-42             	Node-43             	70.783      	50          	100         	0           	Open  	;
 Pipe-109897-15      	Node-43             	Node-44             	98.447      	50          	100         	0           	Open  	;
 Pipe-109897-16      	Node-44             	Node-45             	112.288     	50          	100         	0           	Open  	;
 Pipe-109897-17      	Node-45             	Node-46             	118.983     	50          	100         	0           	Open  	;
 Pipe-109897-18      	Node-46             	Node-47             	55.085      	50          	100         	0           	Open  	;
 Pipe-109897-19      	Node-47             	Node-48             	63.823      	50          	100         	0           	Open  	;
 Pipe-109897-20      	Node-48             	Node-49             	30.742      	50          	100         	0           	Open  	;
 Pipe-109897-21      	Node-49             	Node-51             	24.889      	50          	100         	0           	Open  	;
 Pipe-109898-0       	Node-51             	Node-52             	32.897      	50          	100         	0           	Open  	;
 Pipe-109898-1       	Node-52             	Node-53             	76.406      	50          	100         	0           	Open  	;
 Pipe-109898-2       	Node-53             	Node-54             	52.205      	50          	100         	0           	Open  	;
 Pipe-109898-3       	Node-54             	Node-56             	57.342      	50          	100         	0           	Open  	;
 Pipe-109899-0       	Node-56             	Node-57             	46.096      	50          	100         	0           	Open  	;
 Pipe-109899-1       	Node-57             	Node-58             	47.43       	50          	100         	0           	Open  	;
 Pipe-109899-2       	Node-58             	Node-59             	43.809      	50          	100         	0           	Open  	;
 Pipe-109899-3       	Node-59             	Node-60             	57.471      	50          	100         	0           	Open  	;
 Pipe-109899-4       	Node-60             	Node-61             	17.945      	50          	100         	0           	Open  	;
 Pipe-109899-5       	Node-61             	Node-62             	68.964      	50          	100         	0           	Open  	;
 Pipe-109899-6       	Node-62             	Node-63             	109.209     	50          	100         	0           	Open  	;
 Pipe-109899-7       	Node-63             	Node-64             	97.945      	50          	100         	0           	Open  	;
 Pipe-109899-8       	Node-64             	Node-65             	92.465      	50          	100         	0           	Open  	;
 Pipe-109899-9       	Node-65             	Node-66             	79.373      	50          	100         	0           	Open  	;
 Pipe-109899-10      	Node-66             	Node-67             	67.687      	50          	100         	0           	Open  	;
 Pipe-109899-11      	Node-67             	Node-68             	41.781      	50          	100         	0           	Open  	;
 Pipe-109899-12      	Node-68             	Node-69             	22.204      	50          	100         	0           	Open  	;
 Pipe-109899-13      	Node-69             	Node-70             	22.111      	50          	100         	0           	Open  	;
 Pipe-109899-14      	Node-70             	Node-71             	36.129      	50          	100         	0           	Open  	;
 Pipe-109899-15      	Node-71             	Node-72             	36.255      	50          	100         	0           	Open  	;
 Pipe-109899-16      	Node-72             	Node-73             	18.461      	50          	100         	0           	Open  	;
 Pipe-109899-17      	Node-73             	Node-74             	45.883      	50          	100         	0           	Open  	;