[TITLE]
20411 Karama WSS in Huye District

[JUNCTIONS]
;ID                  	Elev        	Demand      	Pattern         
 Node-16             	1792.0      	0.0         	                	;
 Node-2              	1790.0      	0.0         	                	;
 Node-3              	1790.0      	0.003703704 	                	;
 Node-365            	1793.0      	0.0         	                	;
 Node-5              	1794.0      	0.0         	                	;
 Node-6              	1793.0      	0.0         	                	;
 Node-7              	1792.0      	0.0         	                	;
 Node-8              	1792.0      	0.0         	                	;
 Node-9              	1791.0      	0.009259259 	                	;
 Node-370            	1792.0      	0.0         	                	;
 Node-11             	1792.0      	0.0         	                	;
 Node-12             	1792.0      	0.0         	                	;
 Node-13             	1792.0      	0.0         	                	;
 Node-15             	1792.0      	0.00462963  	                	;
 Node-17             	1792.0      	0.0         	                	;
 Node-18             	1791.0      	0.003703704 	                	;
 Node-366            	1793.0      	0.0         	                	;
 Node-20             	1793.0      	0.0         	                	;
 Node-21             	1793.0      	0.0         	                	;
 Node-22             	1793.0      	0.0         	                	;
 Node-23             	1793.0      	0.006481481 	                	;
 Node-389            	1785.0      	0.0         	                	;
 Node-25             	1785.0      	0.0         	                	;
 Node-26             	1786.0      	0.0         	                	;
 Node-27             	1787.0      	0.0         	                	;
 Node-28             	1787.0      	0.0         	                	;
 Node-29             	1786.0      	0.0         	                	;
 Node-30             	1786.0      	0.0         	                	;
 Node-376            	1790.0      	0.0         	                	;
 Node-32             	1790.0      	0.0         	                	;
 Node-33             	1790.0      	0.0         	                	;
 Node-34             	1787.0      	0.0         	                	;
 Node-35             	1785.0      	0.0         	                	;
 Node-36             	1785.0      	0.0         	                	;
 Node-37             	1785.0      	0.0         	                	;
 Node-38             	1784.0      	0.0         	                	;
 Node-39             	1783.0      	0.003703704 	                	;
 Node-46             	1789.0      	0.0         	                	;
 Node-41             	1789.0      	0.0         	                	;
 Node-42             	1788.0      	0.0         	                	;
 Node-374            	1791.0      	0.0         	                	;
 Node-44             	1790.0      	0.0         	                	;
 Node-45             	1790.0      	0.0         	                	;
 Node-47             	1789.0      	0.0         	                	;
 Node-48             	1789.0      	0.007407407 	                	;
 Node-326            	1806.0      	0.0         	                	;
 Node-50             	1806.0      	0.0         	                	;
 Node-51             	1805.0      	0.0         	                	;
 Node-52             	1803.0      	0.0         	                	;
 Node-53             	1803.0      	0.0         	                	;
 Node-54             	1802.0      	0.0         	                	;
 Node-55             	1802.0      	0.0         	                	;
 Node-56             	1801.0      	0.0         	                	;
 Node-57             	1801.0      	0.0         	                	;
 Node-58             	1802.0      	0.0         	                	;
 Node-59             	1802.0      	0.0         	                	;
 Node-60             	1801.0      	0.0         	                	;
 Node-61             	1802.0      	0.0         	                	;
 Node-62             	1801.0      	0.0         	                	;
 Node-63             	1802.0      	0.0         	                	;
 Node-64             	1804.0      	0.0         	                	;
 Node-65             	1803.0      	0.0         	                	;
 Node-66             	1805.0      	0.0         	                	;
 Node-67             	1805.0      	0.0         	                	;
 Node-68             	1806.0      	0.0         	                	;
 Node-69             	1804.0      	0.0         	                	;
 Node-70             	1805.0      	0.0         	                	;
 Node-71             	1804.0      	0.0         	                	;
 Node-72             	1806.0      	0.0         	                	;
 Node-73             	1804.0      	0.0         	                	;
 Node-74             	1806.0      	0.0         	                	;
 Node-75             	1806.0      	0.0         	                	;
 Node-76             	1804.0      	0.0         	                	;
 Node-77             	1806.0      	0.0         	                	;
 Node-78             	1804.0      	0.0         	                	;
 Node-79             	1804.0      	0.0         	                	;
 Node-80             	1801.0      	0.0         	                	;
 Node-587            	1797.0      	0.0         	                	;
 Node-82             	1797.0      	0.0         	                	;
 Node-619            	1823.0      	0.0         	                	;
 Node-84             	1823.0      	0.0         	                	;
 Node-85             	1823.0      	0.0         	                	;
 Node-86             	1823.0      	0.0         	                	;
 Node-87             	1825.0      	0.0         	                	;
 Node-88             	1825.0      	0.0         	                	;
 Node-89             	1824.0      	0.0         	                	;
 Node-90             	1823.0      	0.0         	                	;
 Node-91             	1823.0      	0.0         	                	;
 Node-92             	1821.0      	0.0         	                	;
 Node-93             	1819.0      	0.0         	                	;
 Node-94             	1820.0      	0.0         	                	;
 Node-95             	1818.0      	0.0         	                	;
 Node-96             	1816.0      	0.0         	                	;
 Node-97             	1813.0      	0.0         	                	;
 Node-98             	1812.0      	0.0         	                	;
 Node-99             	1811.0      	0.0         	                	;
 Node-100            	1809.0      	0.0         	                	;
 Node-101            	1806.0      	0.0         	                	;
 Node-102            	1805.0      	0.0         	                	;
 Node-103            	1805.0      	0.0         	                	;
 Node-104            	1803.0      	0.0         	                	;
 Node-105            	1803.0      	0.0         	                	;
 Node-106            	1802.0      	0.0         	                	;
 Node-107            	1802.0      	0.0         	                	;
 Node-108            	1803.0      	0.0         	                	;
 Node-109            	1802.0      	0.0         	                	;
 Node-110            	1802.0      	0.0         	                	;
 Node-111            	1801.0      	0.0         	                	;
 Node-112            	1801.0      	0.0         	                	;
 Node-113            	1801.0      	0.0         	                	;
 Node-166            	1918.0      	0.0         	                	;
 Node-115            	1915.0      	0.0         	                	;
 Node-116            	1915.0      	0.0         	                	;
 Node-117            	1915.0      	0.0         	                	;
 Node-118            	1915.0      	0.0         	                	;
 Node-119            	1915.0      	0.0         	                	;
 Node-120            	1912.0      	0.0         	                	;
 Node-121            	1912.0      	0.0         	                	;
 Node-122            	1911.0      	0.0         	                	;
 Node-123            	1911.0      	0.0         	                	;
 Node-124            	1914.0      	0.0         	                	;
 Node-125            	1912.0      	0.0         	                	;
 Node-126            	1909.0      	0.0         	                	;
 Node-127            	1914.0      	0.0         	                	;
 Node-128            	1911.0      	0.0         	                	;
 Node-129            	1909.0      	0.0         	                	;
 Node-130            	1909.0      	0.0         	                	;
 Node-131            	1909.0      	0.0         	                	;
 Node-132            	1909.0      	0.0         	                	;
 Node-133            	1910.0      	0.0         	                	;
 Node-134            	1908.0      	0.0         	                	;
 Node-135            	1908.0      	0.0         	                	;
 Node-136            	1909.0      	0.0         	                	;
 Node-137            	1909.0      	0.0         	                	;
 Node-138            	1908.0      	0.0         	                	;
 Node-139            	1905.0      	0.0         	                	;
 Node-140            	1905.0      	0.0         	                	;
 Node-141            	1905.0      	0.0         	                	;
 Node-174            	1905.0      	0.0         	                	;
 Node-144            	1922.0      	0.0         	                	;
 Node-145            	1918.0      	0.0         	                	;
 Node-148            	1909.0      	0.0         	                	;
 Node-149            	1908.0      	0.0         	                	;
 Node-150            	1908.0      	0.0         	                	;
 Node-151            	1905.0      	0.0         	                	;
 Node-152            	1905.0      	0.0         	                	;
 Node-153            	1905.0      	0.0         	                	;
 Node-156            	1908.0      	0.0         	                	;
 Node-157            	1908.0      	0.0         	                	;
 Node-158            	1905.0      	0.0         	                	;
 Node-159            	1905.0      	0.0         	                	;
 Node-160            	1905.0      	0.0         	                	;
 Node-163            	1923.0      	0.0         	                	;
 Node-164            	1922.0      	0.0         	                	;
 Node-165            	1919.0      	0.0         	                	;
 Node-1004           	1905.0      	0.0         	                	;
 Node-168            	1900.0      	0.0         	                	;
 Node-169            	1897.0      	0.0         	                	;
 Node-170            	1895.0      	0.0         	                	;
 Node-171            	1895.0      	0.0         	                	;
 Node-175            	1905.0      	0.0         	                	;
 Node-176            	1905.0      	0.0         	                	;
 Node-400            	1798.0      	0.0         	                	;
 Node-179            	1798.0      	0.00462963  	                	;
 Node-791            	1796.0      	0.0         	                	;
 Node-522            	1796.0      	0.0         	                	;
 Node-222            	1796.0      	0.0         	                	;
 Node-406            	1801.0      	0.0         	                	;
 Node-185            	1801.0      	0.0         	                	;
 Node-186            	1799.0      	0.003703704 	                	;
 Node-215            	1792.0      	0.0         	                	;
 Node-188            	1792.0      	0.0         	                	;
 Node-189            	1792.0      	0.0         	                	;
 Node-190            	1791.0      	0.0         	                	;
 Node-191            	1791.0      	0.050925926 	                	;
 Node-507            	1796.0      	0.0         	                	;
 Node-193            	1796.0      	0.0         	                	;
 Node-194            	1795.0      	0.0         	                	;
 Node-258            	1792.0      	0.0         	                	;
 Node-196            	1792.0      	0.0         	                	;
 Node-197            	1792.0      	0.0         	                	;
 Node-198            	1792.0      	0.0         	                	;
 Node-199            	1792.0      	0.0         	                	;
 Node-398            	1798.0      	0.0         	                	;
 Node-201            	1797.0      	0.0         	                	;
 Node-202            	1797.0      	0.0         	                	;
 Node-203            	1797.0      	0.0         	                	;
 Node-204            	1795.0      	0.0         	                	;
 Node-205            	1794.0      	0.0         	                	;
 Node-206            	1794.0      	0.0         	                	;
 Node-207            	1792.0      	0.0         	                	;
 Node-208            	1792.0      	0.009259259 	                	;
 Node-210            	1796.0      	0.0         	                	;
 Node-211            	1794.0      	0.0         	                	;
 Node-212            	1793.0      	0.0         	                	;
 Node-213            	1793.0      	0.0         	                	;
 Node-214            	1792.0      	0.0         	                	;
 Node-216            	1792.0      	0.0         	                	;
 Node-217            	1792.0      	0.0         	                	;
 Node-410            	1802.0      	0.0         	                	;
 Node-219            	1802.0      	0.00462963  	                	;
 Node-221            	1796.0      	0.0         	                	;
 Node-290            	1799.0      	0.0         	                	;
 Node-224            	1800.0      	0.002777778 	                	;
 Node-293            	1799.0      	0.0         	                	;
 Node-226            	1799.0      	0.0         	                	;
 Node-227            	1801.0      	0.0         	                	;
 Node-228            	1801.0      	0.0         	                	;
 Node-229            	1804.0      	0.0         	                	;
 Node-230            	1804.0      	0.0         	                	;
 Node-231            	1804.0      	0.005555556 	                	;
 Node-407            	1800.0      	0.0         	                	;
 Node-233            	1802.0      	0.0         	                	;
 Node-234            	1802.0      	0.0         	                	;
 Node-235            	1802.0      	0.0         	                	;
 Node-236            	1801.0      	0.0         	                	;
 Node-237            	1799.0      	0.006481481 	                	;
 Node-415            	1807.0      	0.0         	                	;
 Node-239            	1807.0      	0.001851852 	                	;
 Node-282            	1799.0      	0.0         	                	;
 Node-241            	1799.0      	0.0         	                	;
 Node-242            	1797.0      	0.0         	                	;
 Node-243            	1797.0      	0.0         	                	;
 Node-244            	1795.0      	0.0         	                	;
 Node-245            	1794.0      	0.0         	                	;
 Node-289            	1800.0      	0.0         	                	;
 Node-247            	1800.0      	0.0         	                	;
 Node-248            	1798.0      	0.0         	                	;
 Node-249            	1795.0      	0.0         	                	;
 Node-250            	1795.0      	0.0         	                	;
 Node-251            	1793.0      	0.0         	                	;
 Node-252            	1793.0      	0.005555556 	                	;
 Node-451            	1795.0      	0.0         	                	;
 Node-254            	1795.0      	0.0         	                	;
 Node-255            	1795.0      	0.0         	                	;
 Node-256            	1795.0      	0.0         	                	;
 Node-257            	1792.0      	0.0         	                	;
 Node-361            	1807.0      	0.0         	                	;
 Node-260            	1807.0      	0.0         	                	;
 Node-261            	1806.0      	0.0         	                	;
 Node-262            	1805.0      	0.0         	                	;
 Node-263            	1803.0      	0.0         	                	;
 Node-264            	1802.0      	0.0         	                	;
 Node-265            	1801.0      	0.0         	                	;
 Node-266            	1800.0      	0.0         	                	;
 Node-267            	1800.0      	0.0         	                	;
 Node-268            	1799.0      	0.0         	                	;
 Node-269            	1798.0      	0.0         	                	;
 Node-270            	1797.0      	0.0         	                	;
 Node-271            	1797.0      	0.0         	                	;
 Node-272            	1797.0      	0.0         	                	;
 Node-498            	1796.0      	0.0         	                	;
 Node-274            	1796.0      	0.0         	                	;
 Node-275            	1797.0      	0.0         	                	;
 Node-276            	1797.0      	0.0         	                	;
 Node-277            	1797.0      	0.0         	                	;
 Node-278            	1797.0      	0.0         	                	;
 Node-279            	1797.0      	0.0         	                	;
 Node-280            	1798.0      	0.0         	                	;
 Node-281            	1799.0      	0.0         	                	;
 Node-283            	1798.0      	0.0         	                	;
 Node-284            	1798.0      	0.0         	                	;
 Node-285            	1799.0      	0.0         	                	;
 Node-286            	1799.0      	0.0         	                	;
 Node-287            	1799.0      	0.0         	                	;
 Node-288            	1800.0      	0.0         	                	;
 Node-291            	1799.0      	0.0         	                	;
 Node-292            	1798.0      	0.0         	                	;
 Node-294            	1799.0      	0.0         	                	;
 Node-295            	1798.0      	0.0         	                	;
 Node-296            	1798.0      	0.0         	                	;
 Node-298            	1798.0      	0.0         	                	;
 Node-299            	1799.0      	0.0         	                	;
 Node-300            	1799.0      	0.0         	                	;
 Node-301            	1800.0      	0.0         	                	;
 Node-302            	1799.0      	0.0         	                	;
 Node-303            	1802.0      	0.0         	                	;
 Node-304            	1802.0      	0.0         	                	;
 Node-305            	1802.0      	0.0         	                	;
 Node-306            	1800.0      	0.0         	                	;
 Node-307            	1801.0      	0.0         	                	;
 Node-308            	1802.0      	0.0         	                	;
 Node-309            	1801.0      	0.0         	                	;
 Node-310            	1802.0      	0.0         	                	;
 Node-311            	1800.0      	0.0         	                	;
 Node-312            	1802.0      	0.0         	                	;
 Node-313            	1800.0      	0.0         	                	;
 Node-314            	1801.0      	0.0         	                	;
 Node-315            	1800.0      	0.0         	                	;
 Node-316            	1802.0      	0.0         	                	;
 Node-317            	1805.0      	0.0         	                	;
 Node-318            	1805.0      	0.0         	                	;
 Node-319            	1805.0      	0.0         	                	;
 Node-320            	1807.0      	0.0         	                	;
 Node-321            	1806.0      	0.0         	                	;
 Node-322            	1808.0      	0.0         	                	;
 Node-323            	1808.0      	0.0         	                	;
 Node-324            	1806.0      	0.0         	                	;
 Node-325            	1806.0      	0.0         	                	;
 Node-329            	1805.0      	0.0         	                	;
 Node-330            	1805.0      	0.0         	                	;
 Node-331            	1805.0      	0.0         	                	;
 Node-332            	1805.0      	0.0         	                	;
 Node-333            	1804.0      	0.0         	                	;
 Node-418            	1809.0      	0.0         	                	;
 Node-346            	1809.0      	0.0         	                	;
 Node-336            	1809.0      	0.0         	                	;
 Node-337            	1809.0      	0.0         	                	;
 Node-339            	1810.0      	0.0         	                	;
 Node-340            	1810.0      	0.0         	                	;
 Node-341            	1810.0      	0.0         	                	;
 Node-342            	1811.0      	0.0         	                	;
 Node-343            	1811.0      	0.0         	                	;
 Node-344            	1812.0      	0.0         	                	;
 Node-345            	1812.0      	0.005555556 	                	;
 Node-347            	1810.0      	0.0         	                	;
 Node-348            	1810.0      	0.0         	                	;
 Node-349            	1810.0      	0.0         	                	;
 Node-350            	1809.0      	0.0         	                	;
 Node-351            	1810.0      	0.0         	                	;
 Node-352            	1810.0      	0.0         	                	;
 Node-353            	1810.0      	0.0         	                	;
 Node-354            	1809.0      	0.0         	                	;
 Node-358            	1809.0      	0.0         	                	;
 Node-356            	1809.0      	0.0         	                	;
 Node-357            	1808.0      	0.0         	                	;
 Node-359            	1808.0      	0.0         	                	;
 Node-360            	1807.0      	0.0         	                	;
 Node-362            	1808.0      	0.0         	                	;
 Node-454            	1794.0      	0.0         	                	;
 Node-364            	1794.0      	0.0         	                	;
 Node-367            	1793.0      	0.0         	                	;
 Node-368            	1792.0      	0.0         	                	;
 Node-369            	1792.0      	0.0         	                	;
 Node-371            	1792.0      	0.0         	                	;
 Node-372            	1791.0      	0.0         	                	;
 Node-373            	1791.0      	0.0         	                	;
 Node-375            	1791.0      	0.0         	                	;
 Node-377            	1790.0      	0.0         	                	;
 Node-378            	1789.0      	0.0         	                	;
 Node-379            	1789.0      	0.0         	                	;
 Node-381            	1789.0      	0.0         	                	;
 Node-382            	1789.0      	0.0         	                	;
 Node-383            	1789.0      	0.0         	                	;
 Node-384            	1789.0      	0.0         	                	;
 Node-385            	1787.0      	0.0         	                	;
 Node-386            	1787.0      	0.0         	                	;
 Node-387            	1787.0      	0.0         	                	;
 Node-388            	1786.0      	0.0         	                	;
 Node-391            	1785.0      	0.0         	                	;
 Node-392            	1785.0      	0.0         	                	;
 Node-501            	1796.0      	0.0         	                	;
 Node-394            	1797.0      	0.0         	                	;
 Node-395            	1798.0      	0.0         	                	;
 Node-396            	1798.0      	0.0         	                	;
 Node-397            	1798.0      	0.0         	                	;
 Node-399            	1798.0      	0.0         	                	;
 Node-401            	1798.0      	0.0         	                	;
 Node-402            	1800.0      	0.0         	                	;
 Node-403            	1800.0      	0.0         	                	;
 Node-404            	1800.0      	0.0         	                	;
 Node-405            	1801.0      	0.0         	                	;
 Node-408            	1802.0      	0.0         	                	;
 Node-409            	1802.0      	0.0         	                	;
 Node-411            	1805.0      	0.0         	                	;
 Node-412            	1805.0      	0.0         	                	;
 Node-413            	1806.0      	0.0         	                	;
 Node-414            	1806.0      	0.0         	                	;
 Node-416            	1807.0      	0.0         	                	;
 Node-417            	1808.0      	0.0         	                	;
 Node-421            	1794.0      	0.0         	                	;
 Node-425            	1794.0      	0.0         	                	;
 Node-426            	1794.0      	0.0         	                	;
 Node-427            	1794.0      	0.0         	                	;
 Node-428            	1794.0      	0.0         	                	;
 Node-429            	1794.0      	0.0         	                	;
 Node-430            	1794.0      	0.0         	                	;
 Node-431            	1794.0      	0.0         	                	;
 Node-432            	1794.0      	0.0         	                	;
 Node-433            	1793.0      	0.0         	                	;
 Node-434            	1793.0      	0.0         	                	;
 Node-435            	1792.0      	0.106481481 	                	;
 Node-448            	1796.0      	0.0         	                	;
 Node-439            	1796.0      	0.0         	                	;
 Node-440            	1796.0      	0.0         	                	;
 Node-443            	1795.0      	0.0         	                	;
 Node-444            	1795.0      	0.0         	                	;
 Node-445            	1794.0      	0.0         	                	;
 Node-446            	1794.0      	0.0         	                	;
 Node-447            	1793.0      	0.0         	                	;
 Node-449            	1795.0      	0.0         	                	;
 Node-450            	1795.0      	0.0         	                	;
 Node-452            	1795.0      	0.0         	                	;
 Node-453            	1795.0      	0.0         	                	;
 Node-456            	1796.0      	0.0         	                	;
 Node-457            	1796.0      	0.0         	                	;
 Node-458            	1795.0      	0.0         	                	;
 Node-459            	1795.0      	0.0         	                	;
 Node-460            	1793.0      	0.0         	                	;
 Node-461            	1793.0      	0.0         	                	;
 Node-462            	1792.0      	0.0         	                	;
 Node-463            	1792.0      	0.0         	                	;
 Node-464            	1791.0      	0.0         	                	;
 Node-465            	1791.0      	0.0         	                	;
 Node-466            	1790.0      	0.0         	                	;
 Node-467            	1791.0      	0.0         	                	;
 Node-468            	1789.0      	0.0         	                	;
 Node-469            	1788.0      	0.0         	                	;
 Node-470            	1787.0      	0.0         	                	;
 Node-471            	1787.0      	0.0         	                	;
 Node-472            	1786.0      	0.0         	                	;
 Node-503            	1786.0      	0.0         	                	;
 Node-474            	1786.0      	0.0         	                	;
 Node-475            	1787.0      	0.0         	                	;
 Node-476            	1787.0      	0.0         	                	;
 Node-477            	1789.0      	0.0         	                	;
 Node-478            	1789.0      	0.0         	                	;
 Node-479            	1789.0      	0.0         	                	;
 Node-480            	1789.0      	0.0         	                	;
 Node-481            	1790.0      	0.0         	                	;
 Node-482            	1790.0      	0.0         	                	;
 Node-483            	1791.0      	0.0         	                	;
 Node-484            	1791.0      	0.0         	                	;
 Node-485            	1791.0      	0.0         	                	;
 Node-486            	1792.0      	0.0         	                	;
 Node-487            	1792.0      	0.0         	                	;
 Node-488            	1792.0      	0.0         	                	;
 Node-489            	1793.0      	0.0         	                	;
 Node-490            	1793.0      	0.0         	                	;
 Node-491            	1793.0      	0.0         	                	;
 Node-492            	1794.0      	0.0         	                	;
 Node-493            	1795.0      	0.0         	                	;
 Node-494            	1795.0      	0.0         	                	;
 Node-495            	1795.0      	0.0         	                	;
 Node-496            	1796.0      	0.0         	                	;
 Node-499            	1796.0      	0.0         	                	;
 Node-504            	1786.0      	0.0         	                	;
 Node-530            	1797.0      	0.0         	                	;
 Node-506            	1796.0      	0.0         	                	;
 Node-550            	1790.0      	0.0         	                	;
 Node-509            	1789.0      	0.0         	                	;
 Node-510            	1788.0      	0.0         	                	;
 Node-511            	1788.0      	0.0         	                	;
 Node-512            	1788.0      	0.0         	                	;
 Node-513            	1788.0      	0.0         	                	;