[TITLE]
20410 Muhaga WSS in Huye District

[JUNCTIONS]
;ID                  	Elev        	Demand      	Pattern         
 Node-2              	1798.0      	0.0         	                	;
 Node-3              	1796.0      	0.0         	                	;
 Node-4              	1797.0      	0.0         	                	;
 Node-5              	1792.0      	0.0         	                	;
 Node-6              	1789.0      	0.0         	                	;
 Node-394            	1788.0      	0.0         	                	;
 Node-9              	1748.0      	0.0         	                	;
 Node-10             	1747.0      	0.0         	                	;
 Node-11             	1745.0      	0.0         	                	;
 Node-12             	1743.0      	0.0         	                	;
 Node-13             	1743.0      	0.0         	                	;
 Node-14             	1741.0      	0.0         	                	;
 Node-15             	1739.0      	0.0         	                	;
 Node-276            	1739.0      	0.0         	                	;
 Node-17             	1739.0      	0.0         	                	;
 Node-18             	1737.0      	0.0         	                	;
 Node-19             	1736.0      	0.0         	                	;
 Node-20             	1736.0      	0.231481481 	                	;
 Node-21             	1735.0      	0.003703704 	                	;
 Node-22             	1735.0      	0.0         	                	;
 Node-23             	1735.0      	0.0         	                	;
 Node-50             	1737.0      	0.0         	                	;
 Node-51             	1735.0      	0.0         	                	;
 Node-26             	1736.0      	0.0         	                	;
 Node-27             	1736.0      	0.002777778 	                	;
 Node-295            	1732.0      	0.0         	                	;
 Node-29             	1732.0      	0.0         	                	;
 Node-30             	1731.0      	0.0         	                	;
 Node-31             	1730.0      	0.0         	                	;
 Node-32             	1736.0      	0.023148148 	                	;
 Node-33             	1736.0      	0.0         	                	;
 Node-34             	1736.0      	0.0         	                	;
 Node-35             	1736.0      	0.0         	                	;
 Node-308            	1736.0      	0.0         	                	;
 Node-45             	1745.0      	0.0         	                	;
 Node-38             	1745.0      	0.007407407 	                	;
 Node-303            	1755.0      	0.0         	                	;
 Node-40             	1755.0      	0.0         	                	;
 Node-41             	1753.0      	0.0         	                	;
 Node-325            	1752.0      	0.0         	                	;
 Node-326            	1749.0      	0.0         	                	;
 Node-44             	1746.0      	0.0         	                	;
 Node-46             	1742.0      	0.0         	                	;
 Node-47             	1739.0      	0.0         	                	;
 Node-48             	1738.0      	0.0         	                	;
 Node-451            	1737.0      	0.0         	                	;
 Node-52             	1734.0      	0.0         	                	;
 Node-53             	1733.0      	0.0         	                	;
 Node-289            	1732.0      	0.0         	                	;
 Node-55             	1732.0      	0.0         	                	;
 Node-301            	1755.0      	0.0         	                	;
 Node-57             	1755.0      	0.0         	                	;
 Node-58             	1755.0      	0.0         	                	;
 Node-59             	1753.0      	0.0         	                	;
 Node-60             	1751.0      	0.0         	                	;
 Node-298            	1748.0      	0.0         	                	;
 Node-62             	1745.0      	0.0         	                	;
 Node-63             	1744.0      	0.0         	                	;
 Node-64             	1740.0      	0.0         	                	;
 Node-65             	1739.0      	0.0         	                	;
 Node-345            	1740.0      	0.0         	                	;
 Node-67             	1741.0      	0.0         	                	;
 Node-68             	1743.0      	0.0         	                	;
 Node-69             	1745.0      	0.0         	                	;
 Node-70             	1745.0      	0.0         	                	;
 Node-71             	1746.0      	0.0         	                	;
 Node-72             	1748.0      	0.0         	                	;
 Node-338            	1747.0      	0.0         	                	;
 Node-330            	1748.0      	0.0         	                	;
 Node-75             	1748.0      	0.0         	                	;
 Node-76             	1748.0      	0.0         	                	;
 Node-346            	1748.0      	0.0         	                	;
 Node-361            	1747.0      	0.0         	                	;
 Node-384            	1748.0      	0.0         	                	;
 Node-80             	1749.0      	0.0         	                	;
 Node-81             	1749.0      	0.0         	                	;
 Node-82             	1750.0      	0.0         	                	;
 Node-83             	1748.0      	0.0         	                	;
 Node-84             	1751.0      	0.0         	                	;
 Node-85             	1750.0      	0.0         	                	;
 Node-86             	1752.0      	0.0         	                	;
 Node-87             	1751.0      	0.0         	                	;
 Node-382            	1751.0      	0.0         	                	;
 Node-374            	1751.0      	0.0         	                	;
 Node-90             	1750.0      	0.0         	                	;
 Node-91             	1750.0      	0.0         	                	;
 Node-92             	1753.0      	0.0         	                	;
 Node-93             	1755.0      	0.0         	                	;
 Node-94             	1757.0      	0.0         	                	;
 Node-95             	1760.0      	0.0         	                	;
 Node-96             	1761.0      	0.0         	                	;
 Node-97             	1761.0      	0.0         	                	;
 Node-98             	1761.0      	0.0         	                	;
 Node-99             	1760.0      	0.0         	                	;
 Node-100            	1759.0      	0.0         	                	;
 Node-101            	1760.0      	0.0         	                	;
 Node-102            	1765.0      	0.0         	                	;
 Node-103            	1771.0      	0.0         	                	;
 Node-104            	1765.0      	0.0         	                	;
 Node-105            	1771.0      	0.0         	                	;
 Node-106            	1770.0      	0.0         	                	;
 Node-107            	1766.0      	0.0         	                	;
 Node-108            	1773.0      	0.0         	                	;
 Node-109            	1771.0      	0.0         	                	;
 Node-110            	1775.0      	0.0         	                	;
 Node-111            	1770.0      	0.0         	                	;
 Node-112            	1770.0      	0.0         	                	;
 Node-113            	1773.0      	0.0         	                	;
 Node-114            	1767.0      	0.0         	                	;
 Node-115            	1775.0      	0.0         	                	;
 Node-116            	1777.0      	0.0         	                	;
 Node-117            	1781.0      	0.0         	                	;
 Node-118            	1776.0      	0.0         	                	;
 Node-119            	1784.0      	0.0         	                	;
 Node-120            	1785.0      	0.0         	                	;
 Node-121            	1788.0      	0.0         	                	;
 Node-123            	1736.0      	0.005555556 	                	;
 Node-124            	1733.0      	0.0         	                	;
 Node-410            	1729.0      	0.0         	                	;
 Node-126            	1729.0      	0.231481481 	                	;
 Node-396            	1731.0      	0.0         	                	;
 Node-128            	1690.0      	0.231481481 	                	;
 Node-129            	1689.0      	0.0         	                	;
 Node-130            	1687.0      	0.0         	                	;
 Node-131            	1686.0      	0.0         	                	;
 Node-132            	1685.0      	0.0         	                	;
 Node-133            	1686.0      	0.0         	                	;
 Node-134            	1686.0      	0.0         	                	;
 Node-135            	1686.0      	0.0         	                	;
 Node-136            	1688.0      	0.0         	                	;
 Node-137            	1690.0      	0.0         	                	;
 Node-138            	1691.0      	0.0         	                	;
 Node-139            	1695.0      	0.0         	                	;
 Node-140            	1697.0      	0.0         	                	;
 Node-141            	1699.0      	0.0         	                	;
 Node-142            	1699.0      	0.0         	                	;
 Node-143            	1699.0      	0.0         	                	;
 Node-144            	1700.0      	0.0         	                	;
 Node-145            	1700.0      	0.0         	                	;
 Node-146            	1699.0      	0.0         	                	;
 Node-149            	1697.0      	0.0         	                	;
 Node-148            	1697.0      	0.0         	                	;
 Node-150            	1698.0      	0.0         	                	;
 Node-151            	1700.0      	0.0         	                	;
 Node-152            	1701.0      	0.0         	                	;
 Node-153            	1705.0      	0.0         	                	;
 Node-154            	1708.0      	0.0         	                	;
 Node-155            	1708.0      	0.0         	                	;
 Node-156            	1705.0      	0.0         	                	;
 Node-157            	1704.0      	0.0         	                	;
 Node-158            	1705.0      	0.0         	                	;
 Node-159            	1706.0      	0.0         	                	;
 Node-160            	1709.0      	0.0         	                	;
 Node-161            	1712.0      	0.0         	                	;
 Node-162            	1714.0      	0.0         	                	;
 Node-163            	1716.0      	0.0         	                	;
 Node-164            	1720.0      	0.0         	                	;
 Node-165            	1723.0      	0.0         	                	;
 Node-166            	1726.0      	0.0         	                	;
 Node-167            	1726.0      	0.0         	                	;
 Node-168            	1729.0      	0.0         	                	;
 Node-395            	1731.0      	0.0         	                	;
 Node-193            	1736.0      	0.0         	                	;
 Node-171            	1736.0      	0.0         	                	;
 Node-172            	1736.0      	0.0         	                	;
 Node-180            	1738.0      	0.0         	                	;
 Node-174            	1739.0      	0.0         	                	;
 Node-175            	1741.0      	0.0         	                	;
 Node-176            	1742.0      	0.0         	                	;
 Node-177            	1744.0      	0.0         	                	;
 Node-178            	1745.0      	0.0         	                	;
 Node-179            	1748.0      	0.003703704 	                	;
 Node-181            	1739.0      	0.00462963  	                	;
 Node-182            	1730.0      	0.231481481 	                	;
 Node-183            	1733.0      	0.0         	                	;
 Node-184            	1734.0      	0.0         	                	;
 Node-415            	1736.0      	0.0         	                	;
 Node-186            	1736.0      	0.006481481 	                	;
 Node-187            	1734.0      	0.0         	                	;
 Node-412            	1734.0      	0.0         	                	;
 Node-425            	1734.0      	0.0         	                	;
 Node-190            	1734.0      	0.005555556 	                	;
 Node-426            	1732.0      	0.0         	                	;
 Node-192            	1734.0      	0.0         	                	;
 Node-194            	1737.0      	0.0         	                	;
 Node-197            	1737.0      	0.0         	                	;
 Node-196            	1736.0      	0.006481481 	                	;
 Node-198            	1738.0      	0.0         	                	;
 Node-199            	1739.0      	0.0         	                	;
 Node-200            	1739.0      	0.005555556 	                	;
 Node-201            	1735.0      	0.005555556 	                	;
 Node-424            	1733.0      	0.0         	                	;
 Node-203            	1734.0      	0.006481481 	                	;
 Node-204            	1734.0      	0.0         	                	;
 Node-205            	1734.0      	0.0         	                	;
 Node-434            	1734.0      	0.0         	                	;
 Node-433            	1734.0      	0.0         	                	;
 Node-210            	1733.0      	0.0         	                	;
 Node-209            	1733.0      	0.005555556 	                	;
 Node-211            	1734.0      	0.0         	                	;
 Node-212            	1734.0      	0.0         	                	;
 Node-213            	1734.0      	0.006481481 	                	;
 Node-429            	1731.0      	0.0         	                	;
 Node-215            	1733.0      	0.003703704 	                	;
 Node-217            	1748.0      	0.0         	                	;
 Node-218            	1748.0      	0.0         	                	;
 Node-219            	1746.0      	0.0         	                	;
 Node-272            	1746.0      	0.0         	                	;
 Node-221            	1745.0      	0.0         	                	;
 Node-285            	1742.0      	0.0         	                	;
 Node-223            	1740.0      	0.0         	                	;
 Node-224            	1735.0      	0.0         	                	;
 Node-225            	1733.0      	0.231481481 	                	;
 Node-227            	1748.0      	0.0         	                	;
 Node-228            	1748.0      	0.0         	                	;
 Node-229            	1748.0      	0.0         	                	;
 Node-230            	1747.0      	0.0         	                	;
 Node-288            	1748.0      	0.0         	                	;
 Node-232            	1747.0      	0.0         	                	;
 Node-447            	1748.0      	0.0         	                	;
 Node-235            	1748.0      	0.0         	                	;
 Node-236            	1747.0      	0.0         	                	;
 Node-237            	1745.0      	0.0         	                	;
 Node-238            	1741.0      	0.0         	                	;
 Node-239            	1736.0      	0.0         	                	;
 Node-240            	1732.0      	0.0         	                	;
 Node-241            	1728.0      	0.0         	                	;
 Node-242            	1726.0      	0.231481481 	                	;
 Node-438            	1739.0      	0.0         	                	;
 Node-244            	1739.0      	0.0         	                	;
 Node-245            	1739.0      	0.0         	                	;
 Node-246            	1738.0      	0.007407407 	                	;
 Node-247            	1738.0      	0.37037037  	                	;
 Node-256            	1738.0      	0.0         	                	;
 Node-249            	1737.0      	0.138888889 	                	;
 Node-250            	1737.0      	0.0         	                	;
 Node-251            	1736.0      	0.0         	                	;
 Node-271            	1737.0      	0.0         	                	;
 Node-253            	1737.0      	0.0         	                	;
 Node-254            	1737.0      	0.0         	                	;
 Node-255            	1737.0      	0.0         	                	;
 Node-257            	1738.0      	0.0         	                	;
 Node-258            	1739.0      	0.0         	                	;
 Node-259            	1742.0      	0.0         	                	;
 Node-260            	1744.0      	0.0         	                	;
 Node-261            	1745.0      	0.0         	                	;
 Node-262            	1746.0      	0.0         	                	;
 Node-264            	1708.0      	0.009259259 	                	;
 Node-265            	1712.0      	0.0         	                	;
 Node-266            	1718.0      	0.0         	                	;
 Node-267            	1723.0      	0.0         	                	;
 Node-268            	1725.0      	0.0         	                	;
 Node-269            	1730.0      	0.0         	                	;
 Node-270            	1735.0      	0.0         	                	;
 Node-273            	1746.0      	0.231481481 	                	;
 Node-274            	1740.0      	0.023148148 	                	;
 Node-275            	1739.0      	0.0         	                	;
 Node-314            	1739.0      	0.0         	                	;
 Node-278            	1739.0      	0.0         	                	;
 Node-279            	1737.0      	0.0         	                	;
 Node-280            	1735.0      	0.012962963 	                	;
 Node-281            	1741.0      	0.006481481 	                	;
 Node-282            	1741.0      	0.0         	                	;
 Node-283            	1742.0      	0.0         	                	;
 Node-284            	1742.0      	0.0         	                	;
 Node-286            	1747.0      	1.148148148 	                	;
 Node-287            	1748.0      	0.0         	                	;
 Node-290            	1732.0      	0.0         	                	;
 Node-291            	1732.0      	0.0         	                	;
 Node-292            	1732.0      	0.005555556 	                	;
 Node-293            	1731.0      	0.005555556 	                	;
 Node-294            	1732.0      	0.0         	                	;
 Node-296            	1733.0      	0.0         	                	;
 Node-305            	1733.0      	0.0         	                	;
 Node-299            	1748.0      	0.0         	                	;
 Node-300            	1749.0      	0.003703704 	                	;
 Node-304            	1732.0      	0.0         	                	;
 Node-306            	1733.0      	0.0         	                	;
 Node-307            	1734.0      	0.0         	                	;
 Node-309            	1736.0      	0.0         	                	;
 Node-310            	1736.0      	0.0         	                	;
 Node-311            	1737.0      	0.0         	                	;
 Node-312            	1739.0      	0.0         	                	;
 Node-313            	1739.0      	0.0         	                	;
 Node-315            	1741.0      	0.0         	                	;
 Node-316            	1742.0      	0.0         	                	;
 Node-317            	1743.0      	0.0         	                	;
 Node-318            	1745.0      	0.0         	                	;
 Node-319            	1747.0      	0.0         	                	;
 Node-320            	1748.0      	0.0         	                	;
 Node-322            	1751.0      	0.002777778 	                	;
 Node-323            	1752.0      	0.0         	                	;
 Node-324            	1752.0      	0.0         	                	;
 Node-327            	1749.0      	0.0         	                	;
 Node-328            	1750.0      	0.0         	                	;
 Node-329            	1750.0      	0.000925926 	                	;
 Node-331            	1749.0      	0.0         	                	;
 Node-332            	1748.0      	0.0         	                	;
 Node-333            	1748.0      	0.0         	                	;
 Node-334            	1746.0      	0.0         	                	;
 Node-335            	1744.0      	0.0         	                	;
 Node-336            	1742.0      	0.0         	                	;
 Node-337            	1742.0      	0.008333333 	                	;
 Node-341            	1747.0      	0.0         	                	;
 Node-342            	1747.0      	0.231481481 	                	;
 Node-343            	1741.0      	0.00462963  	                	;
 Node-344            	1741.0      	0.0         	                	;
 Node-347            	1747.0      	0.0         	                	;
 Node-348            	1747.0      	0.0         	                	;
 Node-349            	1746.0      	0.006481481 	                	;
 Node-350            	1752.0      	0.003703704 	                	;
 Node-351            	1752.0      	0.0         	                	;
 Node-352            	1750.0      	0.0         	                	;
 Node-353            	1752.0      	0.0         	                	;
 Node-354            	1752.0      	0.0         	                	;
 Node-355            	1753.0      	0.0         	                	;
 Node-356            	1751.0      	0.0         	                	;
 Node-364            	1751.0      	0.0         	                	;
 Node-358            	1755.0      	0.0         	                	;
 Node-359            	1757.0      	0.0         	                	;
 Node-360            	1757.0      	0.00462963  	                	;
 Node-362            	1749.0      	0.0         	                	;
 Node-365            	1749.0      	0.0         	                	;
 Node-366            	1750.0      	0.005555556 	                	;
 Node-368            	1788.0      	0.0         	                	;
 Node-369            	1785.0      	0.0         	                	;
 Node-371            	1785.0      	0.0         	                	;
 Node-372            	1784.0      	0.0         	                	;
 Node-373            	1784.0      	0.0         	                	;
 Node-375            	1751.0      	0.0         	                	;
 Node-376            	1752.0      	0.0         	                	;
 Node-378            	1752.0      	0.0         	                	;
 Node-379            	1751.0      	0.0         	                	;
 Node-380            	1751.0      	0.0         	                	;
 Node-381            	1750.0      	0.231481481 	                	;
 Node-383            	1750.0      	0.003703704 	                	;
 Node-385            	1747.0      	0.0         	                	;
 Node-386            	1747.0      	0.005555556 	                	;
 Node-388            	1802.0      	0.0         	                	;
 Node-389            	1798.0      	0.0         	                	;
 Node-390            	1796.0      	0.0         	                	;
 Node-391            	1797.0      	0.0         	                	;
 Node-392            	1792.0      	0.0         	                	;
 Node-393            	1789.0      	0.0         	                	;
 Node-397            	1732.0      	0.0         	                	;
 Node-398            	1731.0      	0.0         	                	;
 Node-399            	1728.0      	0.0         	                	;
 Node-400            	1722.0      	0.0         	                	;
 Node-401            	1719.0      	0.0         	                	;
 Node-402            	1714.0      	0.0         	                	;
 Node-403            	1711.0      	0.0         	                	;
 Node-404            	1711.0      	0.0         	                	;
 Node-405            	1715.0      	0.0         	                	;
 Node-406            	1715.0      	0.0         	                	;
 Node-407            	1719.0      	0.0         	                	;
 Node-408            	1721.0      	0.0         	                	;
 Node-409            	1728.0      	0.0         	                	;
 Node-411            	1731.0      	0.0         	                	;
 Node-413            	1734.0      	0.0         	                	;
 Node-414            	1735.0      	0.0         	                	;
 Node-416            	1737.0      	0.0         	                	;
 Node-417            	1737.0      	0.0         	                	;
 Node-418            	1730.0      	0.0         	                	;
 Node-419            	1726.0      	0.0         	                	;
 Node-420            	1725.0      	0.0         	                	;
 Node-421            	1728.0      	0.0         	                	;
 Node-422            	1730.0      	0.0         	                	;
 Node-423            	1732.0      	0.0         	                	;
 Node-427            	1733.0      	0.0         	                	;
 Node-428            	1732.0      	0.0         	                	;
 Node-430            	1732.0      	0.0         	                	;
 Node-431            	1732.0      	0.0         	                	;
 Node-432            	1733.0      	0.0         	                	;
 Node-435            	1736.0      	0.0         	                	;
 Node-436            	1737.0      	0.0         	                	;
 Node-437            	1737.0      	0.0         	                	;
 Node-439            	1740.0      	0.0         	                	;
 Node-440            	1740.0      	0.0         	                	;
 Node-441            	1741.0      	0.0         	                	;
 Node-442            	1743.0      	0.0         	                	;
 Node-443            	1745.0      	0.0         	                	;
 Node-444            	1745.0      	0.0         	                	;
 Node-445            	1746.0      	0.0         	                	;
 Node-446            	1747.0      	0.0         	                	;
 Node-449            	1735.0      	0.005555556 	                	;
 Node-450            	1736.0      	0.0         	                	;

[RESERVOIRS]
;ID                  	Head        	Pattern         
 Spring-5375         	1802        	                	;
 Spring-5374         	1804        	                	;

[TANKS]
;ID                  	Elevation   	InitLevel   	MinLevel    	MaxLevel    	Diameter    	MinVol      	VolCurve
 Tank-19020          	1752        	0.75        	0.15000000000000002     	1.5         	5           	5.0         	                	;
 Tank-19013          	1785        	0.75        	0.15000000000000002     	1.5         	5           	5.0         	                	;
 Tank-19015          	1748        	0.75        	0.15000000000000002     	1.5         	5           	40.0        	                	;
 Tank-19018          	1755        	0.75        	0.15000000000000002     	1.5         	5           	10.0        	                	;
 Tank-19014          	1746        	0.75        	0.15000000000000002     	1.5         	5           	20.0        	                	;
 Tank-19019          	1747        	0.75        	0.15000000000000002     	1.5         	5           	5.0         	                	;

[PIPES]
;ID                  	Node1               	Node2               	Length      	Diameter    	Roughness   	MinorLoss   	Status
 Pipe-110011-0       	Spring-5375         	Node-2              	10.028      	63          	100         	0           	Open  	;
 Pipe-110011-1       	Node-2              	Node-3              	15.277      	63          	100         	0           	Open  	;
 Pipe-110011-2       	Node-3              	Node-4              	16.491      	63          	100         	0           	Open  	;
 Pipe-110011-3       	Node-4              	Node-5              	17.11       	63          	100         	0           	Open  	;
 Pipe-110011-4       	Node-5              	Node-6              	12.344      	63          	100         	0           	Open  	;
 Pipe-110011-5       	Node-6              	Node-394            	8.678       	63          	100         	0           	Open  	;
 Pipe-110013-0       	Tank-19015          	Node-9              	6.248       	32          	100         	0           	Open  	;
 Pipe-110013-1       	Node-9              	Node-10             	28.919      	32          	100         	0           	Open  	;
 Pipe-110013-2       	Node-10             	Node-11             	34.605      	32          	100         	0           	Open  	;
 Pipe-110013-3       	Node-11             	Node-12             	32.416      	32          	100         	0           	Open  	;
 Pipe-110013-4       	Node-12             	Node-13             	31.189      	32          	100         	0           	Open  	;
 Pipe-110013-5       	Node-13             	Node-14             	25.572      	32          	100         	0           	Open  	;
 Pipe-110013-6       	Node-14             	Node-15             	20.356      	32          	100         	0           	Open  	;
 Pipe-110013-7       	Node-15             	Node-276            	13.11       	32          	100         	0           	Open  	;
 Pipe-110013-8       	Node-276            	Node-17             	13.977      	32          	100         	0           	Open  	;
 Pipe-110013-9       	Node-17             	Node-18             	15.744      	32          	100         	0           	Open  	;
 Pipe-110013-10      	Node-18             	Node-19             	11.949      	32          	100         	0           	Open  	;
 Pipe-110013-11      	Node-19             	Node-20             	6.136       	32          	100         	0           	Open  	;
 Pipe-110050-0       	Node-21             	Node-22             	7.178       	25          	100         	0           	Open  	;
 Pipe-110050-1       	Node-22             	Node-23             	7.056       	25          	100         	0           	Open  	;
 Pipe-110050-2       	Node-23             	Node-50             	7.099       	25          	100         	0           	Open  	;
 Pipe-110051-0       	Node-51             	Node-26             	12.666      	25          	100         	0           	Open  	;