[TITLE]
20413 Kinazi WSS in Huye District

[JUNCTIONS]
;ID                  	Elev        	Demand      	Pattern         
 Node-2              	1599.0      	0.0         	                	;
 Node-3              	1599.0      	0.0         	                	;
 Node-4              	1599.0      	0.0         	                	;
 Node-5              	1599.0      	0.0         	                	;
 Node-6              	1596.0      	0.0         	                	;
 Node-7              	1595.0      	0.0         	                	;
 Node-8              	1594.0      	0.0         	                	;
 Node-9              	1594.0      	0.0         	                	;
 Node-10             	1590.0      	0.0         	                	;
 Node-11             	1589.0      	0.0         	                	;
 Node-12             	1589.0      	0.0         	                	;
 Node-13             	1589.0      	0.0         	                	;
 Node-14             	1588.0      	0.0         	                	;
 Node-15             	1588.0      	0.0         	                	;
 Node-16             	1586.0      	0.0         	                	;
 Node-17             	1586.0      	0.0         	                	;
 Node-18             	1586.0      	0.0         	                	;
 Node-19             	1585.0      	0.0         	                	;
 Node-20             	1585.0      	0.0         	                	;
 Node-21             	1584.0      	0.0         	                	;
 Node-22             	1583.0      	0.0         	                	;
 Node-23             	1583.0      	0.0         	                	;
 Node-24             	1580.0      	0.0         	                	;
 Node-25             	1580.0      	0.0         	                	;
 Node-26             	1581.0      	0.0         	                	;
 Node-27             	1578.0      	0.0         	                	;
 Node-28             	1579.0      	0.0         	                	;
 Node-87             	1580.0      	0.0         	                	;
 Node-161            	1581.0      	0.0         	                	;
 Node-31             	1585.0      	0.0         	                	;
 Node-32             	1586.0      	0.0         	                	;
 Node-33             	1585.0      	0.0         	                	;
 Node-34             	1586.0      	0.0         	                	;
 Node-35             	1586.0      	0.0         	                	;
 Node-36             	1587.0      	0.0         	                	;
 Node-37             	1591.0      	0.0         	                	;
 Node-38             	1592.0      	0.0         	                	;
 Node-39             	1596.0      	0.0         	                	;
 Node-40             	1598.0      	0.0         	                	;
 Node-41             	1600.0      	0.0         	                	;
 Node-42             	1601.0      	0.0         	                	;
 Node-43             	1601.0      	0.0         	                	;
 Node-44             	1603.0      	0.0         	                	;
 Node-45             	1603.0      	0.0         	                	;
 Node-46             	1602.0      	0.0         	                	;
 Node-47             	1605.0      	0.0         	                	;
 Node-48             	1604.0      	0.0         	                	;
 Node-49             	1603.0      	0.0         	                	;
 Node-50             	1603.0      	0.0         	                	;
 Node-51             	1605.0      	0.0         	                	;
 Node-52             	1605.0      	0.0         	                	;
 Node-53             	1605.0      	0.0         	                	;
 Node-54             	1605.0      	0.0         	                	;
 Node-55             	1604.0      	0.0         	                	;
 Node-56             	1604.0      	0.0         	                	;
 Node-57             	1603.0      	0.0         	                	;
 Node-58             	1603.0      	0.0         	                	;
 Node-59             	1602.0      	0.0         	                	;
 Node-60             	1603.0      	0.0         	                	;
 Node-61             	1602.0      	0.0         	                	;
 Node-62             	1601.0      	0.0         	                	;
 Node-63             	1600.0      	0.0         	                	;
 Node-64             	1600.0      	0.0         	                	;
 Node-65             	1598.0      	0.0         	                	;
 Node-66             	1599.0      	0.0         	                	;
 Node-67             	1598.0      	0.0         	                	;
 Node-68             	1597.0      	0.0         	                	;
 Node-69             	1597.0      	0.0         	                	;
 Node-70             	1597.0      	0.0         	                	;
 Node-71             	1598.0      	0.0         	                	;
 Node-72             	1599.0      	0.0         	                	;
 Node-73             	1599.0      	0.0         	                	;
 Node-74             	1600.0      	0.0         	                	;
 Node-75             	1602.0      	0.0         	                	;
 Node-76             	1602.0      	0.0         	                	;
 Node-77             	1602.0      	0.0         	                	;
 Node-78             	1602.0      	0.0         	                	;
 Node-79             	1602.0      	0.0         	                	;
 Node-80             	1601.0      	0.0         	                	;
 Node-81             	1601.0      	0.0         	                	;
 Node-82             	1601.0      	0.0         	                	;
 Node-85             	1600.0      	0.0         	                	;
 Node-86             	1599.0      	0.0         	                	;
 Node-88             	1580.0      	0.0         	                	;
 Node-89             	1581.0      	0.0         	                	;
 Node-90             	1579.0      	0.0         	                	;
 Node-91             	1580.0      	0.0         	                	;
 Node-92             	1579.0      	0.0         	                	;
 Node-93             	1580.0      	0.0         	                	;
 Node-94             	1580.0      	0.0         	                	;
 Node-95             	1580.0      	0.0         	                	;
 Node-96             	1581.0      	0.0         	                	;
 Node-97             	1581.0      	0.0         	                	;
 Node-98             	1581.0      	0.0         	                	;
 Node-99             	1580.0      	0.0         	                	;
 Node-100            	1581.0      	0.0         	                	;
 Node-101            	1581.0      	0.0         	                	;
 Node-102            	1582.0      	0.0         	                	;
 Node-103            	1581.0      	0.0         	                	;
 Node-104            	1581.0      	0.0         	                	;
 Node-105            	1582.0      	0.0         	                	;
 Node-106            	1582.0      	0.0         	                	;
 Node-107            	1583.0      	0.0         	                	;
 Node-108            	1583.0      	0.0         	                	;
 Node-109            	1584.0      	0.0         	                	;
 Node-110            	1583.0      	0.0         	                	;
 Node-111            	1584.0      	0.0         	                	;
 Node-112            	1584.0      	0.0         	                	;
 Node-113            	1585.0      	0.0         	                	;
 Node-114            	1585.0      	0.0         	                	;
 Node-115            	1586.0      	0.0         	                	;
 Node-116            	1586.0      	0.0         	                	;
 Node-117            	1586.0      	0.0         	                	;
 Node-118            	1586.0      	0.0         	                	;
 Node-119            	1586.0      	0.0         	                	;
 Node-120            	1586.0      	0.0         	                	;
 Node-121            	1587.0      	0.0         	                	;
 Node-122            	1587.0      	0.0         	                	;
 Node-124            	1614.0      	0.0         	                	;
 Node-125            	1613.0      	0.0         	                	;
 Node-126            	1612.0      	0.0         	                	;
 Node-128            	1614.0      	0.0         	                	;
 Node-129            	1613.0      	0.0         	                	;
 Node-130            	1613.0      	0.0         	                	;
 Node-131            	1612.0      	0.0         	                	;
 Node-132            	1612.0      	0.0         	                	;
 Node-133            	1610.0      	0.0         	                	;
 Node-134            	1610.0      	0.0         	                	;
 Node-135            	1608.0      	0.0         	                	;
 Node-136            	1608.0      	0.0         	                	;
 Node-137            	1600.0      	0.0         	                	;
 Node-138            	1600.0      	0.0         	                	;
 Node-139            	1600.0      	0.0         	                	;
 Node-140            	1599.0      	0.0         	                	;
 Node-141            	1596.0      	0.0         	                	;
 Node-142            	1596.0      	0.0         	                	;
 Node-143            	1594.0      	0.0         	                	;
 Node-144            	1595.0      	0.0         	                	;
 Node-145            	1594.0      	0.0         	                	;
 Node-146            	1597.0      	0.0         	                	;
 Node-147            	1596.0      	0.0         	                	;
 Node-148            	1596.0      	0.0         	                	;
 Node-149            	1596.0      	0.0         	                	;
 Node-150            	1594.0      	0.0         	                	;
 Node-151            	1593.0      	0.0         	                	;
 Node-152            	1595.0      	0.0         	                	;
 Node-153            	1593.0      	0.0         	                	;
 Node-154            	1592.0      	0.0         	                	;
 Node-155            	1591.0      	0.0         	                	;
 Node-156            	1589.0      	0.0         	                	;
 Node-157            	1585.0      	0.0         	                	;
 Node-158            	1584.0      	0.0         	                	;
 Node-159            	1583.0      	0.0         	                	;
 Node-160            	1583.0      	0.0         	                	;
 Node-162            	1623.0      	0.0         	                	;
 Node-163            	1623.0      	0.0         	                	;
 Node-164            	1622.0      	0.0         	                	;
 Node-165            	1622.0      	0.0         	                	;
 Node-166            	1620.0      	0.0         	                	;
 Node-167            	1619.0      	0.0         	                	;
 Node-168            	1617.0      	0.0         	                	;
 Node-169            	1615.0      	0.0         	                	;
 Node-170            	1615.0      	0.0         	                	;
 Node-171            	1614.0      	0.0         	                	;
 Node-172            	1613.0      	0.0         	                	;
 Node-173            	1613.0      	0.0         	                	;
 Node-174            	1611.0      	0.0         	                	;
 Node-175            	1610.0      	0.0         	                	;
 Node-176            	1609.0      	0.0         	                	;
 Node-177            	1607.0      	0.0         	                	;
 Node-178            	1606.0      	0.0         	                	;
 Node-179            	1603.0      	0.0         	                	;
 Node-180            	1603.0      	0.0         	                	;
 Node-181            	1601.0      	0.0         	                	;
 Node-182            	1601.0      	0.0         	                	;
 Node-183            	1600.0      	0.0         	                	;
 Node-184            	1599.0      	0.0         	                	;
 Node-185            	1599.0      	0.0         	                	;
 Node-186            	1600.0      	0.0         	                	;
 Node-187            	1600.0      	0.0         	                	;
 Node-188            	1598.0      	0.0         	                	;
 Node-189            	1600.0      	0.0         	                	;
 Node-190            	1600.0      	0.0         	                	;
 Node-191            	1601.0      	0.0         	                	;
 Node-192            	1601.0      	0.0         	                	;
 Node-193            	1601.0      	0.0         	                	;
 Node-194            	1602.0      	0.0         	                	;
 Node-195            	1603.0      	0.0         	                	;
 Node-196            	1603.0      	0.0         	                	;
 Node-197            	1604.0      	0.0         	                	;
 Node-198            	1605.0      	0.0         	                	;
 Node-199            	1606.0      	0.0         	                	;
 Node-200            	1606.0      	0.0         	                	;
 Node-201            	1606.0      	0.0         	                	;
 Node-202            	1607.0      	0.0         	                	;
 Node-203            	1607.0      	0.0         	                	;
 Node-204            	1607.0      	0.0         	                	;
 Node-205            	1608.0      	0.0         	                	;
 Node-206            	1608.0      	0.0         	                	;
 Node-207            	1610.0      	0.0         	                	;
 Node-208            	1610.0      	0.0         	                	;
 Node-209            	1610.0      	0.0         	                	;
 Node-210            	1610.0      	0.0         	                	;
 Node-211            	1611.0      	0.0         	                	;
 Node-212            	1610.0      	0.0         	                	;
 Node-213            	1612.0      	0.0         	                	;
 Node-214            	1611.0      	0.0         	                	;
 Node-215            	1612.0      	0.0         	                	;
 Node-216            	1611.0      	0.0         	                	;
 Node-217            	1610.0      	0.0         	                	;
 Node-218            	1610.0      	0.0         	                	;
 Node-219            	1610.0      	0.0         	                	;
 Node-220            	1609.0      	0.0         	                	;
 Node-221            	1609.0      	0.0         	                	;
 Node-222            	1608.0      	0.0         	                	;
 Node-223            	1609.0      	0.0         	                	;
 Node-224            	1610.0      	0.0         	                	;
 Node-225            	1609.0      	0.0         	                	;
 Node-226            	1609.0      	0.0         	                	;
 Node-227            	1610.0      	0.0         	                	;
 Node-228            	1611.0      	0.0         	                	;
 Node-229            	1612.0      	0.0         	                	;
 Node-230            	1610.0      	0.0         	                	;
 Node-231            	1612.0      	0.0         	                	;
 Node-232            	1613.0      	0.0         	                	;
 Node-233            	1614.0      	0.0         	                	;
 Node-234            	1612.0      	0.0         	                	;
 Node-235            	1613.0      	0.0         	                	;
 Node-236            	1613.0      	0.0         	                	;
 Node-237            	1615.0      	0.0         	                	;
 Node-238            	1615.0      	0.0         	                	;
 Node-239            	1615.0      	0.0         	                	;
 Node-426            	1623.0      	0.0         	                	;
 Node-246            	1623.0      	0.0         	                	;
 Node-429            	1622.0      	0.0         	                	;
 Node-248            	1622.0      	0.0         	                	;
 Node-249            	1621.0      	0.0         	                	;
 Node-250            	1620.0      	0.0         	                	;
 Node-251            	1620.0      	0.000925926 	                	;
 Node-253            	1623.0      	0.0         	                	;
 Node-254            	1622.0      	0.0         	                	;
 Node-255            	1622.0      	0.0         	                	;
 Node-256            	1621.0      	0.0         	                	;
 Node-257            	1621.0      	0.0         	                	;
 Node-258            	1621.0      	0.0         	                	;
 Node-259            	1619.0      	0.0         	                	;
 Node-260            	1618.0      	0.0         	                	;
 Node-261            	1616.0      	0.0         	                	;
 Node-262            	1616.0      	0.0         	                	;
 Node-263            	1615.0      	0.0         	                	;
 Node-264            	1613.0      	0.0         	                	;
 Node-265            	1613.0      	0.0         	                	;
 Node-266            	1613.0      	0.0         	                	;
 Node-267            	1611.0      	0.0         	                	;
 Node-268            	1611.0      	0.0         	                	;
 Node-269            	1611.0      	0.0         	                	;
 Node-270            	1610.0      	0.0         	                	;
 Node-271            	1610.0      	0.0         	                	;
 Node-272            	1612.0      	0.0         	                	;
 Node-273            	1612.0      	0.0         	                	;
 Node-274            	1613.0      	0.0         	                	;
 Node-275            	1613.0      	0.0         	                	;
 Node-276            	1613.0      	0.0         	                	;
 Node-278            	1666.0      	0.0         	                	;
 Node-279            	1666.0      	0.0         	                	;
 Node-280            	1663.0      	0.0         	                	;
 Node-281            	1662.0      	0.0         	                	;
 Node-282            	1662.0      	0.0         	                	;
 Node-283            	1661.0      	0.0         	                	;
 Node-284            	1661.0      	0.0         	                	;
 Node-285            	1660.0      	0.0         	                	;
 Node-286            	1660.0      	0.0         	                	;
 Node-287            	1660.0      	0.0         	                	;
 Node-288            	1660.0      	0.0         	                	;
 Node-289            	1660.0      	0.0         	                	;
 Node-399            	1661.0      	0.0         	                	;
 Node-292            	1659.0      	0.0         	                	;
 Node-293            	1659.0      	0.0         	                	;
 Node-294            	1659.0      	0.0         	                	;
 Node-296            	1659.0      	0.0         	                	;
 Node-297            	1660.0      	0.0         	                	;
 Node-298            	1658.0      	0.0         	                	;
 Node-299            	1657.0      	0.0         	                	;
 Node-300            	1657.0      	0.0         	                	;
 Node-301            	1657.0      	0.0         	                	;
 Node-302            	1658.0      	0.0         	                	;
 Node-303            	1657.0      	0.0         	                	;
 Node-304            	1658.0      	0.0         	                	;
 Node-305            	1657.0      	0.0         	                	;
 Node-306            	1656.0      	0.0         	                	;
 Node-307            	1655.0      	0.0         	                	;
 Node-308            	1655.0      	0.0         	                	;
 Node-309            	1655.0      	0.0         	                	;
 Node-310            	1654.0      	0.0         	                	;
 Node-311            	1654.0      	0.0         	                	;
 Node-312            	1654.0      	0.0         	                	;
 Node-313            	1652.0      	0.0         	                	;
 Node-314            	1651.0      	0.0         	                	;
 Node-315            	1650.0      	0.0         	                	;
 Node-316            	1650.0      	0.0         	                	;
 Node-317            	1650.0      	0.0         	                	;
 Node-318            	1650.0      	0.0         	                	;
 Node-319            	1649.0      	0.0         	                	;
 Node-320            	1648.0      	0.0         	                	;
 Node-321            	1647.0      	0.0         	                	;
 Node-322            	1646.0      	0.0         	                	;
 Node-323            	1644.0      	0.0         	                	;
 Node-324            	1643.0      	0.0         	                	;
 Node-325            	1643.0      	0.0         	                	;
 Node-326            	1643.0      	0.0         	                	;
 Node-327            	1642.0      	0.0         	                	;
 Node-328            	1641.0      	0.0         	                	;
 Node-329            	1639.0      	0.0         	                	;
 Node-330            	1639.0      	0.0         	                	;
 Node-331            	1639.0      	0.0         	                	;
 Node-332            	1638.0      	0.0         	                	;
 Node-333            	1638.0      	0.0         	                	;
 Node-334            	1637.0      	0.0         	                	;
 Node-335            	1635.0      	0.0         	                	;
 Node-336            	1635.0      	0.0         	                	;
 Node-337            	1633.0      	0.0         	                	;
 Node-338            	1633.0      	0.0         	                	;
 Node-339            	1631.0      	0.0         	                	;
 Node-340            	1628.0      	0.0         	                	;
 Node-341            	1628.0      	0.0         	                	;
 Node-342            	1629.0      	0.0         	                	;
 Node-343            	1626.0      	0.0         	                	;
 Node-344            	1624.0      	0.0         	                	;
 Node-345            	1625.0      	0.0         	                	;
 Node-346            	1623.0      	0.0         	                	;
 Node-347            	1621.0      	0.0         	                	;
 Node-348            	1620.0      	0.0         	                	;
 Node-349            	1619.0      	0.0         	                	;
 Node-350            	1618.0      	0.0         	                	;
 Node-351            	1615.0      	0.0         	                	;
 Node-352            	1615.0      	0.0         	                	;
 Node-353            	1615.0      	0.0         	                	;
 Node-354            	1614.0      	0.0         	                	;
 Node-355            	1613.0      	0.0         	                	;
 Node-356            	1613.0      	0.0         	                	;
 Node-357            	1612.0      	0.0         	                	;
 Node-358            	1612.0      	0.0         	                	;
 Node-359            	1610.0      	0.0         	                	;
 Node-360            	1610.0      	0.0         	                	;
 Node-361            	1611.0      	0.0         	                	;
 Node-362            	1611.0      	0.0         	                	;
 Node-363            	1613.0      	0.0         	                	;
 Node-364            	1613.0      	0.0         	                	;
 Node-365            	1613.0      	0.0         	                	;
 Node-366            	1613.0      	0.0         	                	;
 Node-367            	1615.0      	0.0         	                	;
 Node-368            	1615.0      	0.0         	                	;
 Node-369            	1616.0      	0.0         	                	;
 Node-370            	1618.0      	0.0         	                	;
 Node-371            	1619.0      	0.0         	                	;
 Node-372            	1621.0      	0.0         	                	;
 Node-373            	1621.0      	0.0         	                	;
 Node-374            	1621.0      	0.0         	                	;
 Node-375            	1622.0      	0.0         	                	;
 Node-376            	1623.0      	0.0         	                	;
 Node-377            	1623.0      	0.0         	                	;
 Node-380            	1623.0      	0.0         	                	;
 Node-381            	1623.0      	0.0         	                	;
 Node-422            	1670.0      	0.0         	                	;
 Node-384            	1670.0      	0.0         	                	;
 Node-385            	1670.0      	0.0         	                	;
 Node-386            	1667.0      	0.0         	                	;
 Node-387            	1667.0      	0.0         	                	;
 Node-388            	1667.0      	0.0         	                	;
 Node-389            	1667.0      	0.0         	                	;
 Node-390            	1666.0      	0.0         	                	;
 Node-391            	1665.0      	0.0         	                	;
 Node-392            	1665.0      	0.0         	                	;
 Node-393            	1664.0      	0.0         	                	;
 Node-394            	1663.0      	0.0         	                	;
 Node-395            	1662.0      	0.0         	                	;
 Node-396            	1662.0      	0.0         	                	;
 Node-397            	1661.0      	0.0         	                	;
 Node-398            	1661.0      	0.0         	                	;
 Node-401            	1669.0      	0.0         	                	;
 Node-403            	1669.0      	0.0         	                	;
 Node-404            	1669.0      	0.0         	                	;
 Node-407            	1666.0      	0.0         	                	;
 Node-408            	1666.0      	0.0         	                	;
 Node-410            	1673.0      	0.0         	                	;
 Node-411            	1673.0      	0.0         	                	;
 Node-412            	1673.0      	0.0         	                	;
 Node-413            	1672.0      	0.0         	                	;
 Node-414            	1672.0      	0.0         	                	;
 Node-415            	1672.0      	0.0         	                	;
 Node-416            	1671.0      	0.0         	                	;
 Node-417            	1671.0      	0.0         	                	;
 Node-418            	1671.0      	0.0         	                	;
 Node-419            	1670.0      	0.0         	                	;
 Node-420            	1669.0      	0.0         	                	;
 Node-421            	1670.0      	0.0         	                	;
 Node-424            	1623.0      	0.0         	                	;
 Node-425            	1622.0      	0.0         	                	;
 Node-427            	1623.0      	0.0         	                	;
 Node-428            	1623.0      	0.0         	                	;
 Node-430            	1620.0      	0.0         	                	;
 Node-431            	1618.0      	0.0         	                	;
 Node-432            	1617.0      	0.0         	                	;
 Node-433            	1615.0      	0.0         	                	;
 Node-434            	1615.0      	0.0         	                	;
 Node-435            	1614.0      	0.0         	                	;
 Node-436            	1613.0      	0.0         	                	;
 Node-437            	1613.0      	0.0         	                	;
 Node-438            	1611.0      	0.0         	                	;
 Node-439            	1610.0      	0.0         	                	;
 Node-440            	1609.0      	0.0         	                	;
 Node-441            	1607.0      	0.0         	                	;
 Node-442            	1606.0      	0.0         	                	;
 Node-443            	1603.0      	0.0         	                	;
 Node-444            	1603.0      	0.0         	                	;
 Node-445            	1601.0      	0.0         	                	;
 Node-446            	1601.0      	0.0         	                	;
 Node-447            	1600.0      	0.0         	                	;
 Node-448            	1599.0      	0.0         	                	;
 Node-449            	1599.0      	0.0         	                	;
 Node-450            	1600.0      	0.0         	                	;
 Node-451            	1600.0      	0.0         	                	;

[RESERVOIRS]
;ID                  	Head        	Pattern         
 Spring-5297         	1672        	                	;
 Spring-5386         	1669        	                	;

[TANKS]
;ID                  	Elevation   	InitLevel   	MinLevel    	MaxLevel    	Diameter    	MinVol      	VolCurve
 Tank-18994          	1623        	0.75        	0.15000000000000002     	1.5         	5           	30.0        	                	;
 Tank-18995          	1666        	0.75        	0.15000000000000002     	1.5         	5           	3.0         	                	;
 Tank-18984          	1600        	0.75        	0.15000000000000002     	1.5         	5           	5.0         	                	;
 Tank-18993          	1615        	0.75        	0.15000000000000002     	1.5         	5           	5.0         	                	;

[PIPES]
;ID                  	Node1               	Node2               	Length      	Diameter    	Roughness   	MinorLoss   	Status
 Pipe-108805-0       	Tank-18984          	Node-2              	6.521       	32          	100         	0           	Open  	;
 Pipe-108805-1       	Node-2              	Node-3              	4.678       	32          	100         	0           	Open  	;
 Pipe-108805-2       	Node-3              	Node-4              	9.849       	32          	100         	0           	Open  	;
 Pipe-108805-3       	Node-4              	Node-5              	4.911       	32          	100         	0           	Open  	;
 Pipe-108805-4       	Node-5              	Node-6              	12.479      	32          	100         	0           	Open  	;