[TITLE]
20414 Nyabitare WSS in Huye District

[JUNCTIONS]
;ID                  	Elev        	Demand      	Pattern         
 Node-509            	1759.0      	0.0         	                	;
 Node-18             	1759.0      	0.0         	                	;
 Node-19             	1759.0      	0.0         	                	;
 Node-20             	1759.0      	0.0         	                	;
 Node-21             	1760.0      	0.0         	                	;
 Node-22             	1760.0      	0.0         	                	;
 Node-23             	1760.0      	0.0         	                	;
 Node-24             	1761.0      	0.0         	                	;
 Node-25             	1761.0      	0.0         	                	;
 Node-512            	1761.0      	0.0         	                	;
 Node-27             	1762.0      	0.0         	                	;
 Node-28             	1762.0      	0.0         	                	;
 Node-29             	1762.0      	0.0         	                	;
 Node-30             	1762.0      	0.0         	                	;
 Node-31             	1761.0      	0.0         	                	;
 Node-61             	1744.0      	0.0         	                	;
 Node-34             	1744.0      	0.0         	                	;
 Node-35             	1744.0      	0.0         	                	;
 Node-36             	1744.0      	0.002777778 	                	;
 Node-613            	1743.0      	0.0         	                	;
 Node-38             	1743.0      	0.0         	                	;
 Node-39             	1743.0      	0.00462963  	                	;
 Node-58             	1745.0      	0.0         	                	;
 Node-41             	1745.0      	0.0         	                	;
 Node-42             	1745.0      	0.00462963  	                	;
 Node-626            	1745.0      	0.0         	                	;
 Node-44             	1745.0      	0.0         	                	;
 Node-45             	1745.0      	0.006481481 	                	;
 Node-168            	1747.0      	0.0         	                	;
 Node-47             	1747.0      	0.0         	                	;
 Node-48             	1747.0      	0.0         	                	;
 Node-49             	1747.0      	0.0         	                	;
 Node-50             	1746.0      	0.005555556 	                	;
 Node-147            	1753.0      	0.0         	                	;
 Node-52             	1752.0      	0.0         	                	;
 Node-633            	1745.0      	0.0         	                	;
 Node-55             	1745.0      	0.0         	                	;
 Node-56             	1745.0      	0.0         	                	;
 Node-57             	1745.0      	0.0         	                	;
 Node-59             	1744.0      	0.0         	                	;
 Node-60             	1744.0      	0.0         	                	;
 Node-62             	1744.0      	0.0         	                	;
 Node-63             	1743.0      	0.0         	                	;
 Node-441            	1743.0      	0.0         	                	;
 Node-65             	1743.0      	0.0         	                	;
 Node-66             	1742.0      	0.002777778 	                	;
 Node-609            	1743.0      	0.0         	                	;
 Node-68             	1743.0      	0.0         	                	;
 Node-69             	1742.0      	0.0         	                	;
 Node-70             	1742.0      	0.005555556 	                	;
 Node-620            	1743.0      	0.0         	                	;
 Node-72             	1743.0      	0.0         	                	;
 Node-73             	1744.0      	0.003703704 	                	;
 Node-171            	1747.0      	0.0         	                	;
 Node-75             	1747.0      	0.0         	                	;
 Node-76             	1747.0      	0.0         	                	;
 Node-77             	1747.0      	0.0         	                	;
 Node-78             	1748.0      	0.0         	                	;
 Node-79             	1748.0      	0.0         	                	;
 Node-80             	1747.0      	0.0         	                	;
 Node-81             	1747.0      	0.0         	                	;
 Node-82             	1747.0      	0.00462963  	                	;
 Node-173            	1746.0      	0.0         	                	;
 Node-84             	1746.0      	0.0         	                	;
 Node-85             	1746.0      	0.0         	                	;
 Node-86             	1746.0      	0.0         	                	;
 Node-87             	1746.0      	0.002777778 	                	;
 Node-604            	1742.0      	0.0         	                	;
 Node-90             	1785.0      	0.0         	                	;
 Node-91             	1784.0      	0.0         	                	;
 Node-92             	1784.0      	0.0         	                	;
 Node-93             	1783.0      	0.0         	                	;
 Node-570            	1783.0      	0.0         	                	;
 Node-95             	1782.0      	0.0         	                	;
 Node-96             	1781.0      	0.0         	                	;
 Node-97             	1780.0      	0.0         	                	;
 Node-98             	1779.0      	0.0         	                	;
 Node-106            	1779.0      	0.0         	                	;
 Node-100            	1778.0      	0.0         	                	;
 Node-101            	1776.0      	0.0         	                	;
 Node-102            	1776.0      	0.0         	                	;
 Node-103            	1776.0      	0.0         	                	;
 Node-104            	1775.0      	0.0         	                	;
 Node-331            	1773.0      	0.0         	                	;
 Node-107            	1779.0      	0.0         	                	;
 Node-108            	1779.0      	0.002777778 	                	;
 Node-110            	1773.0      	0.0         	                	;
 Node-111            	1772.0      	0.0         	                	;
 Node-112            	1772.0      	0.0         	                	;
 Node-113            	1771.0      	0.0         	                	;
 Node-575            	1771.0      	0.0         	                	;
 Node-115            	1770.0      	0.0         	                	;
 Node-588            	1770.0      	0.0         	                	;
 Node-117            	1767.0      	0.0         	                	;
 Node-118            	1767.0      	0.0         	                	;
 Node-119            	1765.0      	0.0         	                	;
 Node-120            	1765.0      	0.0         	                	;
 Node-121            	1764.0      	0.0         	                	;
 Node-122            	1763.0      	0.0         	                	;
 Node-123            	1762.0      	0.0         	                	;
 Node-124            	1762.0      	0.0         	                	;
 Node-125            	1762.0      	0.0         	                	;
 Node-126            	1761.0      	0.0         	                	;
 Node-542            	1761.0      	0.0         	                	;
 Node-128            	1759.0      	0.0         	                	;
 Node-129            	1759.0      	0.0         	                	;
 Node-130            	1760.0      	0.0         	                	;
 Node-131            	1759.0      	0.0         	                	;
 Node-132            	1758.0      	0.0         	                	;
 Node-133            	1757.0      	0.0         	                	;
 Node-134            	1757.0      	0.0         	                	;
 Node-135            	1757.0      	0.0         	                	;
 Node-549            	1757.0      	0.0         	                	;
 Node-137            	1757.0      	0.0         	                	;
 Node-138            	1756.0      	0.0         	                	;
 Node-139            	1756.0      	0.0         	                	;
 Node-140            	1756.0      	0.0         	                	;
 Node-141            	1756.0      	0.0         	                	;
 Node-142            	1756.0      	0.0         	                	;
 Node-143            	1754.0      	0.0         	                	;
 Node-553            	1754.0      	0.0         	                	;
 Node-146            	1754.0      	0.0         	                	;
 Node-148            	1753.0      	0.0         	                	;
 Node-551            	1752.0      	0.0         	                	;
 Node-150            	1752.0      	0.0         	                	;
 Node-151            	1753.0      	0.0         	                	;
 Node-152            	1753.0      	0.0         	                	;
 Node-496            	1753.0      	0.0         	                	;
 Node-154            	1753.0      	0.0         	                	;
 Node-155            	1754.0      	0.0         	                	;
 Node-156            	1754.0      	0.0         	                	;
 Node-157            	1753.0      	0.0         	                	;
 Node-158            	1753.0      	0.0         	                	;
 Node-159            	1753.0      	0.0         	                	;
 Node-160            	1752.0      	0.0         	                	;
 Node-161            	1751.0      	0.0         	                	;
 Node-162            	1751.0      	0.0         	                	;
 Node-163            	1751.0      	0.0         	                	;
 Node-481            	1749.0      	0.0         	                	;
 Node-165            	1748.0      	0.0         	                	;
 Node-166            	1748.0      	0.0         	                	;
 Node-167            	1747.0      	0.0         	                	;
 Node-169            	1747.0      	0.0         	                	;
 Node-170            	1747.0      	0.0         	                	;
 Node-172            	1746.0      	0.0         	                	;
 Node-174            	1746.0      	0.0         	                	;
 Node-175            	1745.0      	0.0         	                	;
 Node-176            	1745.0      	0.0         	                	;
 Node-177            	1745.0      	0.0         	                	;
 Node-178            	1744.0      	0.0         	                	;
 Node-593            	1744.0      	0.0         	                	;
 Node-373            	1670.0      	0.0         	                	;
 Node-372            	1673.0      	0.0         	                	;
 Node-183            	1673.0      	0.0         	                	;
 Node-184            	1673.0      	0.0         	                	;
 Node-185            	1673.0      	0.0         	                	;
 Node-186            	1673.0      	0.0         	                	;
 Node-187            	1673.0      	0.0         	                	;
 Node-188            	1673.0      	0.0         	                	;
 Node-189            	1673.0      	0.0         	                	;
 Node-190            	1673.0      	0.0         	                	;
 Node-191            	1672.0      	0.0         	                	;
 Node-192            	1672.0      	0.0         	                	;
 Node-193            	1671.0      	0.0         	                	;
 Node-194            	1671.0      	0.0         	                	;
 Node-195            	1672.0      	0.0         	                	;
 Node-196            	1673.0      	0.0         	                	;
 Node-197            	1672.0      	0.0         	                	;
 Node-198            	1671.0      	0.0         	                	;
 Node-199            	1671.0      	0.0         	                	;
 Node-200            	1670.0      	0.0         	                	;
 Node-201            	1671.0      	0.0         	                	;
 Node-202            	1670.0      	0.0         	                	;
 Node-379            	1675.0      	0.0         	                	;
 Node-205            	1678.0      	0.0         	                	;
 Node-206            	1678.0      	0.0         	                	;
 Node-207            	1680.0      	0.0         	                	;
 Node-208            	1683.0      	0.0         	                	;
 Node-209            	1686.0      	0.0         	                	;
 Node-210            	1690.0      	0.0         	                	;
 Node-211            	1690.0      	0.0         	                	;
 Node-212            	1694.0      	0.0         	                	;
 Node-213            	1694.0      	0.0         	                	;
 Node-214            	1697.0      	0.0         	                	;
 Node-215            	1697.0      	0.0         	                	;
 Node-216            	1699.0      	0.0         	                	;
 Node-217            	1701.0      	0.0         	                	;
 Node-218            	1701.0      	0.0         	                	;
 Node-219            	1703.0      	0.0         	                	;
 Node-220            	1703.0      	0.0         	                	;
 Node-221            	1703.0      	0.0         	                	;
 Node-222            	1705.0      	0.0         	                	;
 Node-223            	1706.0      	0.0         	                	;
 Node-224            	1708.0      	0.0         	                	;
 Node-225            	1709.0      	0.0         	                	;
 Node-226            	1710.0      	0.0         	                	;
 Node-227            	1714.0      	0.0         	                	;
 Node-228            	1714.0      	0.0         	                	;
 Node-229            	1714.0      	0.0         	                	;
 Node-230            	1716.0      	0.0         	                	;
 Node-231            	1716.0      	0.0         	                	;
 Node-232            	1718.0      	0.0         	                	;
 Node-233            	1719.0      	0.0         	                	;
 Node-234            	1718.0      	0.0         	                	;
 Node-235            	1718.0      	0.0         	                	;
 Node-236            	1719.0      	0.0         	                	;
 Node-237            	1719.0      	0.0         	                	;
 Node-238            	1722.0      	0.0         	                	;
 Node-239            	1723.0      	0.0         	                	;
 Node-240            	1724.0      	0.0         	                	;
 Node-241            	1725.0      	0.0         	                	;
 Node-242            	1725.0      	0.0         	                	;
 Node-243            	1727.0      	0.0         	                	;
 Node-244            	1728.0      	0.0         	                	;
 Node-245            	1726.0      	0.0         	                	;
 Node-246            	1726.0      	0.0         	                	;
 Node-247            	1728.0      	0.0         	                	;
 Node-248            	1727.0      	0.0         	                	;
 Node-249            	1728.0      	0.0         	                	;
 Node-250            	1728.0      	0.0         	                	;
 Node-251            	1728.0      	0.0         	                	;
 Node-252            	1728.0      	0.0         	                	;
 Node-253            	1728.0      	0.0         	                	;
 Node-254            	1729.0      	0.0         	                	;
 Node-255            	1729.0      	0.0         	                	;
 Node-256            	1729.0      	0.0         	                	;
 Node-257            	1730.0      	0.0         	                	;
 Node-258            	1731.0      	0.0         	                	;
 Node-259            	1732.0      	0.0         	                	;
 Node-260            	1733.0      	0.0         	                	;
 Node-261            	1735.0      	0.0         	                	;
 Node-262            	1734.0      	0.0         	                	;
 Node-263            	1734.0      	0.0         	                	;
 Node-264            	1736.0      	0.0         	                	;
 Node-265            	1736.0      	0.0         	                	;
 Node-266            	1734.0      	0.0         	                	;
 Node-267            	1733.0      	0.0         	                	;
 Node-268            	1735.0      	0.0         	                	;
 Node-269            	1735.0      	0.0         	                	;
 Node-270            	1735.0      	0.0         	                	;
 Node-271            	1735.0      	0.0         	                	;
 Node-272            	1737.0      	0.0         	                	;
 Node-273            	1738.0      	0.0         	                	;
 Node-274            	1738.0      	0.0         	                	;
 Node-275            	1738.0      	0.0         	                	;
 Node-276            	1739.0      	0.0         	                	;
 Node-277            	1740.0      	0.0         	                	;
 Node-278            	1741.0      	0.0         	                	;
 Node-279            	1741.0      	0.0         	                	;
 Node-280            	1743.0      	0.0         	                	;
 Node-281            	1744.0      	0.0         	                	;
 Node-282            	1745.0      	0.0         	                	;
 Node-283            	1746.0      	0.0         	                	;
 Node-284            	1750.0      	0.0         	                	;
 Node-285            	1750.0      	0.0         	                	;
 Node-286            	1750.0      	0.0         	                	;
 Node-287            	1753.0      	0.0         	                	;
 Node-288            	1753.0      	0.0         	                	;
 Node-289            	1755.0      	0.0         	                	;
 Node-290            	1756.0      	0.0         	                	;
 Node-291            	1758.0      	0.0         	                	;
 Node-292            	1759.0      	0.0         	                	;
 Node-293            	1759.0      	0.0         	                	;
 Node-294            	1759.0      	0.0         	                	;
 Node-295            	1760.0      	0.0         	                	;
 Node-296            	1760.0      	0.0         	                	;
 Node-297            	1762.0      	0.0         	                	;
 Node-298            	1762.0      	0.0         	                	;
 Node-299            	1764.0      	0.0         	                	;
 Node-300            	1764.0      	0.0         	                	;
 Node-301            	1765.0      	0.0         	                	;
 Node-302            	1767.0      	0.0         	                	;
 Node-303            	1769.0      	0.0         	                	;
 Node-304            	1770.0      	0.0         	                	;
 Node-305            	1771.0      	0.0         	                	;
 Node-306            	1771.0      	0.0         	                	;
 Node-307            	1772.0      	0.0         	                	;
 Node-308            	1772.0      	0.0         	                	;
 Node-309            	1774.0      	0.0         	                	;
 Node-310            	1775.0      	0.0         	                	;
 Node-311            	1775.0      	0.0         	                	;
 Node-312            	1777.0      	0.0         	                	;
 Node-313            	1778.0      	0.0         	                	;
 Node-314            	1779.0      	0.0         	                	;
 Node-315            	1779.0      	0.0         	                	;
 Node-316            	1780.0      	0.0         	                	;
 Node-317            	1781.0      	0.0         	                	;
 Node-318            	1781.0      	0.0         	                	;
 Node-319            	1782.0      	0.0         	                	;
 Node-320            	1782.0      	0.0         	                	;
 Node-321            	1783.0      	0.0         	                	;
 Node-322            	1783.0      	0.0         	                	;
 Node-323            	1784.0      	0.0         	                	;
 Node-324            	1784.0      	0.0         	                	;
 Node-325            	1784.0      	0.0         	                	;
 Node-326            	1784.0      	0.0         	                	;
 Node-327            	1785.0      	0.0         	                	;
 Node-328            	1785.0      	0.0         	                	;
 Node-329            	1784.0      	0.0         	                	;
 Node-332            	1773.0      	0.0         	                	;
 Node-333            	1774.0      	0.0         	                	;
 Node-334            	1774.0      	0.0         	                	;
 Node-336            	1680.0      	0.0         	                	;
 Node-337            	1680.0      	0.0         	                	;
 Node-338            	1678.0      	0.0         	                	;
 Node-382            	1678.0      	0.0         	                	;
 Node-341            	1677.0      	0.0         	                	;
 Node-342            	1677.0      	0.0         	                	;
 Node-343            	1677.0      	0.0         	                	;
 Node-344            	1673.0      	0.0         	                	;
 Node-347            	1676.0      	0.0         	                	;
 Node-348            	1677.0      	0.0         	                	;
 Node-349            	1676.0      	0.0         	                	;
 Node-350            	1680.0      	0.0         	                	;
 Node-351            	1677.0      	0.0         	                	;
 Node-352            	1677.0      	0.0         	                	;
 Node-353            	1677.0      	0.0         	                	;
 Node-354            	1678.0      	0.0         	                	;
 Node-355            	1675.0      	0.0         	                	;
 Node-356            	1675.0      	0.0         	                	;
 Node-357            	1675.0      	0.0         	                	;
 Node-358            	1675.0      	0.0         	                	;
 Node-359            	1676.0      	0.0         	                	;
 Node-360            	1675.0      	0.0         	                	;
 Node-361            	1673.0      	0.0         	                	;
 Node-362            	1673.0      	0.0         	                	;
 Node-363            	1674.0      	0.0         	                	;
 Node-364            	1673.0      	0.0         	                	;
 Node-365            	1673.0      	0.0         	                	;
 Node-366            	1673.0      	0.0         	                	;
 Node-367            	1674.0      	0.0         	                	;
 Node-368            	1674.0      	0.0         	                	;
 Node-369            	1673.0      	0.0         	                	;
 Node-370            	1673.0      	0.0         	                	;
 Node-371            	1673.0      	0.0         	                	;
 Node-374            	1670.0      	0.0         	                	;
 Node-375            	1670.0      	0.0         	                	;
 Node-376            	1671.0      	0.0         	                	;
 Node-377            	1671.0      	0.0         	                	;
 Node-378            	1672.0      	0.0         	                	;
 Node-381            	1683.0      	0.0         	                	;
 Node-392            	1743.0      	0.0         	                	;
 Node-384            	1743.0      	0.0         	                	;
 Node-385            	1743.0      	0.0         	                	;
 Node-386            	1743.0      	0.000925926 	                	;
 Node-629            	1745.0      	0.0         	                	;
 Node-388            	1745.0      	0.0         	                	;
 Node-389            	1745.0      	0.0         	                	;
 Node-390            	1744.0      	0.0         	                	;
 Node-391            	1744.0      	0.0         	                	;
 Node-393            	1742.0      	0.0         	                	;
 Node-394            	1742.0      	0.0         	                	;
 Node-395            	1740.0      	0.0         	                	;
 Node-396            	1739.0      	0.0         	                	;
 Node-397            	1738.0      	0.0         	                	;
 Node-398            	1736.0      	0.0         	                	;
 Node-399            	1736.0      	0.0         	                	;
 Node-400            	1736.0      	0.0         	                	;
 Node-401            	1736.0      	0.0         	                	;
 Node-402            	1735.0      	0.0         	                	;
 Node-403            	1734.0      	0.0         	                	;
 Node-404            	1733.0      	0.0         	                	;
 Node-405            	1733.0      	0.0         	                	;
 Node-406            	1732.0      	0.0         	                	;
 Node-407            	1732.0      	0.0         	                	;
 Node-408            	1730.0      	0.0         	                	;
 Node-409            	1730.0      	0.0         	                	;
 Node-410            	1727.0      	0.0         	                	;
 Node-411            	1726.0      	0.0         	                	;
 Node-412            	1723.0      	0.0         	                	;
 Node-413            	1723.0      	0.0         	                	;
 Node-414            	1722.0      	0.0         	                	;
 Node-415            	1719.0      	0.0         	                	;
 Node-416            	1716.0      	0.0         	                	;
 Node-417            	1716.0      	0.0         	                	;
 Node-418            	1714.0      	0.0         	                	;
 Node-419            	1713.0      	0.0         	                	;
 Node-420            	1713.0      	0.0         	                	;
 Node-421            	1713.0      	0.0         	                	;
 Node-422            	1712.0      	0.0         	                	;
 Node-423            	1712.0      	0.0         	                	;
 Node-424            	1712.0      	0.0         	                	;
 Node-425            	1709.0      	0.0         	                	;
 Node-426            	1709.0      	0.0         	                	;
 Node-427            	1707.0      	0.000925926 	                	;
 Node-504            	1757.0      	0.0         	                	;
 Node-429            	1757.0      	0.0         	                	;
 Node-430            	1757.0      	0.0         	                	;
 Node-632            	1745.0      	0.0         	                	;
 Node-432            	1745.0      	0.0         	                	;
 Node-433            	1745.0      	0.0         	                	;
 Node-434            	1745.0      	0.0         	                	;
 Node-435            	1745.0      	0.0         	                	;
 Node-436            	1744.0      	0.0         	                	;
 Node-437            	1744.0      	0.0         	                	;
 Node-438            	1744.0      	0.0         	                	;
 Node-439            	1744.0      	0.0         	                	;
 Node-440            	1743.0      	0.005555556 	                	;
 Node-442            	1743.0      	0.0         	                	;
 Node-443            	1743.0      	0.0         	                	;
 Node-444            	1743.0      	0.0         	                	;
 Node-445            	1742.0      	0.0         	                	;
 Node-446            	1742.0      	0.0         	                	;
 Node-447            	1741.0      	0.0         	                	;
 Node-448            	1739.0      	0.0         	                	;
 Node-449            	1739.0      	0.0         	                	;
 Node-450            	1739.0      	0.0         	                	;
 Node-451            	1739.0      	0.0         	                	;
 Node-452            	1738.0      	0.0         	                	;
 Node-453            	1738.0      	0.0         	                	;
 Node-454            	1737.0      	0.0         	                	;
 Node-455            	1737.0      	0.0         	                	;
 Node-456            	1737.0      	0.001851852 	                	;
 Node-457            	1742.0      	0.0         	                	;
 Node-458            	1742.0      	0.007407407 	                	;
 Node-520            	1766.0      	0.0         	                	;
 Node-460            	1767.0      	0.0         	                	;
 Node-461            	1767.0      	0.0         	                	;
 Node-462            	1767.0      	0.0         	                	;
 Node-463            	1767.0      	0.0         	                	;
 Node-464            	1767.0      	0.0         	                	;
 Node-465            	1767.0      	0.0         	                	;
 Node-466            	1767.0      	0.006481481 	                	;
 Node-515            	1763.0      	0.0         	                	;
 Node-468            	1763.0      	0.0         	                	;
 Node-469            	1762.0      	0.0         	                	;
 Node-470            	1763.0      	0.0         	                	;
 Node-471            	1764.0      	0.0         	                	;
 Node-472            	1762.0      	0.0         	                	;
 Node-473            	1763.0      	0.0         	                	;
 Node-474            	1763.0      	0.0         	                	;
 Node-475            	1763.0      	0.0         	                	;
 Node-476            	1763.0      	0.0         	                	;
 Node-477            	1762.0      	0.0         	                	;
 Node-478            	1762.0      	0.0         	                	;
 Node-479            	1761.0      	0.0         	                	;
 Node-480            	1761.0      	0.001851852 	                	;
 Node-482            	1750.0      	0.0         	                	;
 Node-483            	1750.0      	0.0         	                	;
 Node-484            	1751.0      	0.0         	                	;
 Node-485            	1752.0      	0.0         	                	;
 Node-486            	1752.0      	0.0         	                	;
 Node-490            	1752.0      	0.0         	                	;
 Node-488            	1752.0      	0.0         	                	;
 Node-489            	1752.0      	0.005555556 	                	;