[TITLE]
20415 Rucyeza-Rwimbogo WSS in Huye District

[JUNCTIONS]
;ID                  	Elev        	Demand      	Pattern         
 Node-557            	1793.0      	0.0         	                	;
 Node-2              	1792.0      	0.00462963  	                	;
 Node-104            	1783.0      	0.0         	                	;
 Node-4              	1784.0      	0.00462963  	                	;
 Node-133            	1789.0      	0.0         	                	;
 Node-6              	1789.0      	0.0         	                	;
 Node-7              	1789.0      	0.0         	                	;
 Node-8              	1789.0      	0.005555556 	                	;
 Node-59             	1785.0      	0.0         	                	;
 Node-10             	1785.0      	0.0         	                	;
 Node-51             	1790.0      	0.0         	                	;
 Node-12             	1787.0      	0.0         	                	;
 Node-13             	1785.0      	0.0         	                	;
 Node-14             	1785.0      	0.007407407 	                	;
 Node-519            	1681.0      	0.0         	                	;
 Node-16             	1683.0      	0.0         	                	;
 Node-17             	1687.0      	0.0         	                	;
 Node-18             	1690.0      	0.0         	                	;
 Node-19             	1692.0      	0.0         	                	;
 Node-20             	1691.0      	0.0         	                	;
 Node-21             	1693.0      	0.0         	                	;
 Node-22             	1694.0      	0.0         	                	;
 Node-23             	1695.0      	0.0         	                	;
 Node-24             	1695.0      	0.0         	                	;
 Node-545            	1795.0      	0.0         	                	;
 Node-26             	1795.0      	0.0         	                	;
 Node-27             	1795.0      	0.0         	                	;
 Node-28             	1796.0      	0.0         	                	;
 Node-29             	1795.0      	0.0         	                	;
 Node-30             	1796.0      	0.0         	                	;
 Node-31             	1797.0      	0.0         	                	;
 Node-32             	1799.0      	0.0         	                	;
 Node-33             	1797.0      	0.0         	                	;
 Node-34             	1799.0      	0.0         	                	;
 Node-35             	1798.0      	0.0         	                	;
 Node-36             	1797.0      	0.0         	                	;
 Node-37             	1797.0      	0.0         	                	;
 Node-38             	1795.0      	0.0         	                	;
 Node-39             	1797.0      	0.0         	                	;
 Node-40             	1796.0      	0.0         	                	;
 Node-41             	1796.0      	0.0         	                	;
 Node-42             	1797.0      	0.0         	                	;
 Node-43             	1796.0      	0.0         	                	;
 Node-44             	1796.0      	0.0         	                	;
 Node-45             	1796.0      	0.0         	                	;
 Node-46             	1796.0      	0.0         	                	;
 Node-47             	1792.0      	0.0         	                	;
 Node-48             	1792.0      	0.0         	                	;
 Node-49             	1792.0      	0.0         	                	;
 Node-50             	1791.0      	0.0         	                	;
 Node-52             	1788.0      	0.0         	                	;
 Node-53             	1788.0      	0.0         	                	;
 Node-54             	1789.0      	0.0         	                	;
 Node-55             	1788.0      	0.0         	                	;
 Node-56             	1787.0      	0.0         	                	;
 Node-57             	1787.0      	0.0         	                	;
 Node-58             	1786.0      	0.0         	                	;
 Node-268            	1774.0      	0.0         	                	;
 Node-61             	1774.0      	0.0         	                	;
 Node-62             	1773.0      	0.0         	                	;
 Node-63             	1771.0      	0.0         	                	;
 Node-64             	1771.0      	0.0         	                	;
 Node-65             	1769.0      	0.0         	                	;
 Node-66             	1767.0      	0.0         	                	;
 Node-67             	1767.0      	0.0         	                	;
 Node-68             	1763.0      	0.0         	                	;
 Node-69             	1761.0      	0.0         	                	;
 Node-70             	1756.0      	0.0         	                	;
 Node-71             	1754.0      	0.0         	                	;
 Node-72             	1751.0      	0.0         	                	;
 Node-73             	1748.0      	0.0         	                	;
 Node-74             	1746.0      	0.0         	                	;
 Node-75             	1740.0      	0.0         	                	;
 Node-77             	1795.0      	0.0         	                	;
 Node-78             	1797.0      	0.0         	                	;
 Node-79             	1796.0      	0.0         	                	;
 Node-80             	1798.0      	0.0         	                	;
 Node-81             	1797.0      	0.0         	                	;
 Node-82             	1796.0      	0.0         	                	;
 Node-83             	1795.0      	0.0         	                	;
 Node-84             	1795.0      	0.0         	                	;
 Node-85             	1794.0      	0.0         	                	;
 Node-86             	1793.0      	0.0         	                	;
 Node-87             	1793.0      	0.0         	                	;
 Node-88             	1793.0      	0.0         	                	;
 Node-89             	1792.0      	0.0         	                	;
 Node-90             	1792.0      	0.0         	                	;
 Node-91             	1791.0      	0.0         	                	;
 Node-92             	1791.0      	0.0         	                	;
 Node-93             	1791.0      	0.0         	                	;
 Node-94             	1790.0      	0.0         	                	;
 Node-95             	1789.0      	0.0         	                	;
 Node-96             	1789.0      	0.0         	                	;
 Node-97             	1788.0      	0.0         	                	;
 Node-98             	1788.0      	0.0         	                	;
 Node-99             	1787.0      	0.0         	                	;
 Node-100            	1786.0      	0.0         	                	;
 Node-101            	1785.0      	0.0         	                	;
 Node-102            	1785.0      	0.0         	                	;
 Node-103            	1784.0      	0.0         	                	;
 Node-105            	1783.0      	0.0         	                	;
 Node-106            	1782.0      	0.0         	                	;
 Node-180            	1781.0      	0.0         	                	;
 Node-108            	1780.0      	0.0         	                	;
 Node-109            	1779.0      	0.0         	                	;
 Node-110            	1778.0      	0.0         	                	;
 Node-111            	1774.0      	0.0         	                	;
 Node-112            	1771.0      	0.0         	                	;
 Node-113            	1768.0      	0.0         	                	;
 Node-114            	1767.0      	0.0         	                	;
 Node-115            	1766.0      	0.0         	                	;
 Node-116            	1766.0      	0.0         	                	;
 Node-117            	1766.0      	0.0         	                	;
 Node-119            	1795.0      	0.0         	                	;
 Node-120            	1797.0      	0.0         	                	;
 Node-121            	1796.0      	0.0         	                	;
 Node-122            	1798.0      	0.0         	                	;
 Node-123            	1797.0      	0.0         	                	;
 Node-124            	1794.0      	0.0         	                	;
 Node-125            	1793.0      	0.0         	                	;
 Node-126            	1793.0      	0.0         	                	;
 Node-127            	1793.0      	0.0         	                	;
 Node-128            	1792.0      	0.0         	                	;
 Node-129            	1792.0      	0.0         	                	;
 Node-130            	1791.0      	0.0         	                	;
 Node-131            	1790.0      	0.0         	                	;
 Node-132            	1789.0      	0.0         	                	;
 Node-134            	1788.0      	0.0         	                	;
 Node-135            	1787.0      	0.0         	                	;
 Node-136            	1786.0      	0.0         	                	;
 Node-137            	1785.0      	0.0         	                	;
 Node-138            	1784.0      	0.0         	                	;
 Node-139            	1784.0      	0.0         	                	;
 Node-140            	1783.0      	0.0         	                	;
 Node-141            	1782.0      	0.0         	                	;
 Node-142            	1781.0      	0.0         	                	;
 Node-143            	1780.0      	0.0         	                	;
 Node-144            	1779.0      	0.0         	                	;
 Node-145            	1778.0      	0.0         	                	;
 Node-146            	1774.0      	0.0         	                	;
 Node-147            	1771.0      	0.0         	                	;
 Node-148            	1768.0      	0.0         	                	;
 Node-149            	1767.0      	0.0         	                	;
 Node-150            	1767.0      	0.0         	                	;
 Node-151            	1766.0      	0.0         	                	;
 Node-152            	1766.0      	0.0         	                	;
 Node-153            	1765.0      	0.0         	                	;
 Node-154            	1765.0      	0.0         	                	;
 Node-155            	1764.0      	0.0         	                	;
 Node-156            	1763.0      	0.0         	                	;
 Node-157            	1762.0      	0.0         	                	;
 Node-158            	1760.0      	0.0         	                	;
 Node-159            	1760.0      	0.0         	                	;
 Node-160            	1759.0      	0.0         	                	;
 Node-161            	1754.0      	0.0         	                	;
 Node-162            	1754.0      	0.0         	                	;
 Node-163            	1751.0      	0.0         	                	;
 Node-164            	1751.0      	0.0         	                	;
 Node-165            	1750.0      	0.0         	                	;
 Node-166            	1747.0      	0.0         	                	;
 Node-167            	1744.0      	0.0         	                	;
 Node-168            	1741.0      	0.0         	                	;
 Node-169            	1740.0      	0.0         	                	;
 Node-170            	1736.0      	0.0         	                	;
 Node-171            	1734.0      	0.0         	                	;
 Node-172            	1733.0      	0.0         	                	;
 Node-173            	1730.0      	0.0         	                	;
 Node-174            	1729.0      	0.0         	                	;
 Node-175            	1727.0      	0.0         	                	;
 Node-177            	1796.0      	0.0         	                	;
 Node-178            	1795.0      	0.0         	                	;
 Node-181            	1781.0      	0.0         	                	;
 Node-182            	1781.0      	0.008333333 	                	;
 Node-184            	1796.0      	0.0         	                	;
 Node-185            	1795.0      	0.0         	                	;
 Node-188            	1796.0      	0.0         	                	;
 Node-189            	1795.0      	0.0         	                	;
 Node-194            	1796.0      	0.0         	                	;
 Node-195            	1795.0      	0.0         	                	;
 Node-198            	1819.0      	0.0         	                	;
 Node-199            	1814.0      	0.0         	                	;
 Node-200            	1814.0      	0.0         	                	;
 Node-337            	1812.0      	0.0         	                	;
 Node-204            	1812.0      	0.0         	                	;
 Node-205            	1812.0      	0.0         	                	;
 Node-206            	1809.0      	0.0         	                	;
 Node-207            	1807.0      	0.0         	                	;
 Node-208            	1805.0      	0.0         	                	;
 Node-209            	1802.0      	0.0         	                	;
 Node-210            	1801.0      	0.0         	                	;
 Node-211            	1800.0      	0.0         	                	;
 Node-212            	1800.0      	0.0         	                	;
 Node-213            	1800.0      	0.0         	                	;
 Node-214            	1796.0      	0.0         	                	;
 Node-215            	1796.0      	0.0         	                	;
 Node-216            	1797.0      	0.0         	                	;
 Node-217            	1797.0      	0.0         	                	;
 Node-218            	1798.0      	0.0         	                	;
 Node-219            	1798.0      	0.0         	                	;
 Node-220            	1798.0      	0.0         	                	;
 Node-221            	1798.0      	0.0         	                	;
 Node-222            	1798.0      	0.0         	                	;
 Node-223            	1797.0      	0.0         	                	;
 Node-224            	1796.0      	0.0         	                	;
 Node-225            	1794.0      	0.0         	                	;
 Node-226            	1792.0      	0.0         	                	;
 Node-227            	1791.0      	0.0         	                	;
 Node-228            	1789.0      	0.0         	                	;
 Node-229            	1786.0      	0.0         	                	;
 Node-230            	1785.0      	0.0         	                	;
 Node-231            	1781.0      	0.0         	                	;
 Node-232            	1781.0      	0.0         	                	;
 Node-233            	1783.0      	0.0         	                	;
 Node-234            	1783.0      	0.0         	                	;
 Node-235            	1782.0      	0.0         	                	;
 Node-236            	1779.0      	0.0         	                	;
 Node-237            	1777.0      	0.0         	                	;
 Node-238            	1776.0      	0.0         	                	;
 Node-239            	1775.0      	0.0         	                	;
 Node-240            	1773.0      	0.0         	                	;
 Node-241            	1772.0      	0.0         	                	;
 Node-242            	1771.0      	0.0         	                	;
 Node-244            	1771.0      	0.0         	                	;
 Node-245            	1769.0      	0.0         	                	;
 Node-246            	1770.0      	0.0         	                	;
 Node-247            	1771.0      	0.0         	                	;
 Node-248            	1773.0      	0.0         	                	;
 Node-249            	1773.0      	0.0         	                	;
 Node-250            	1776.0      	0.0         	                	;
 Node-251            	1774.0      	0.0         	                	;
 Node-252            	1772.0      	0.0         	                	;
 Node-253            	1774.0      	0.0         	                	;
 Node-254            	1775.0      	0.0         	                	;
 Node-255            	1771.0      	0.0         	                	;
 Node-256            	1773.0      	0.0         	                	;
 Node-257            	1773.0      	0.0         	                	;
 Node-258            	1773.0      	0.0         	                	;
 Node-259            	1776.0      	0.0         	                	;
 Node-260            	1776.0      	0.0         	                	;
 Node-261            	1773.0      	0.0         	                	;
 Node-262            	1774.0      	0.0         	                	;
 Node-263            	1775.0      	0.0         	                	;
 Node-264            	1772.0      	0.0         	                	;
 Node-265            	1773.0      	0.0         	                	;
 Node-266            	1773.0      	0.0         	                	;
 Node-267            	1774.0      	0.0         	                	;
 Node-269            	1776.0      	0.0         	                	;
 Node-270            	1777.0      	0.0         	                	;
 Node-271            	1777.0      	0.0         	                	;
 Node-272            	1778.0      	0.0         	                	;
 Node-273            	1778.0      	0.0         	                	;
 Node-274            	1779.0      	0.0         	                	;
 Node-275            	1779.0      	0.0         	                	;
 Node-276            	1780.0      	0.0         	                	;
 Node-277            	1780.0      	0.0         	                	;
 Node-278            	1781.0      	0.0         	                	;
 Node-279            	1782.0      	0.0         	                	;
 Node-280            	1782.0      	0.0         	                	;
 Node-281            	1784.0      	0.0         	                	;
 Node-282            	1784.0      	0.0         	                	;
 Node-283            	1783.0      	0.0         	                	;
 Node-284            	1783.0      	0.0         	                	;
 Node-285            	1785.0      	0.0         	                	;
 Node-286            	1785.0      	0.0         	                	;
 Node-287            	1784.0      	0.0         	                	;
 Node-288            	1784.0      	0.0         	                	;
 Node-289            	1784.0      	0.0         	                	;
 Node-290            	1783.0      	0.0         	                	;
 Node-291            	1783.0      	0.0         	                	;
 Node-292            	1785.0      	0.0         	                	;
 Node-293            	1785.0      	0.0         	                	;
 Node-294            	1787.0      	0.0         	                	;
 Node-295            	1786.0      	0.0         	                	;
 Node-296            	1785.0      	0.0         	                	;
 Node-297            	1786.0      	0.0         	                	;
 Node-298            	1787.0      	0.0         	                	;
 Node-299            	1787.0      	0.0         	                	;
 Node-300            	1788.0      	0.0         	                	;
 Node-301            	1789.0      	0.0         	                	;
 Node-302            	1788.0      	0.0         	                	;
 Node-303            	1788.0      	0.0         	                	;
 Node-304            	1790.0      	0.0         	                	;
 Node-305            	1791.0      	0.0         	                	;
 Node-306            	1792.0      	0.0         	                	;
 Node-307            	1792.0      	0.0         	                	;
 Node-308            	1795.0      	0.0         	                	;
 Node-309            	1796.0      	0.0         	                	;
 Node-310            	1796.0      	0.0         	                	;
 Node-311            	1796.0      	0.0         	                	;
 Node-312            	1796.0      	0.0         	                	;
 Node-313            	1797.0      	0.0         	                	;
 Node-314            	1796.0      	0.0         	                	;
 Node-315            	1796.0      	0.0         	                	;
 Node-316            	1797.0      	0.0         	                	;
 Node-317            	1797.0      	0.0         	                	;
 Node-318            	1798.0      	0.0         	                	;
 Node-319            	1797.0      	0.0         	                	;
 Node-320            	1798.0      	0.0         	                	;
 Node-321            	1799.0      	0.0         	                	;
 Node-322            	1797.0      	0.0         	                	;
 Node-323            	1799.0      	0.0         	                	;
 Node-324            	1800.0      	0.0         	                	;
 Node-325            	1796.0      	0.0         	                	;
 Node-326            	1798.0      	0.0         	                	;
 Node-329            	1812.0      	0.0         	                	;
 Node-330            	1811.0      	0.0         	                	;
 Node-331            	1811.0      	0.0         	                	;
 Node-332            	1818.0      	0.0         	                	;
 Node-333            	1818.0      	0.0         	                	;
 Node-334            	1818.0      	0.0         	                	;
 Node-335            	1816.0      	0.0         	                	;
 Node-336            	1814.0      	0.0         	                	;
 Node-425            	1759.0      	0.0         	                	;
 Node-339            	1759.0      	0.0         	                	;
 Node-340            	1760.0      	0.0         	                	;
 Node-341            	1760.0      	0.002777778 	                	;
 Node-342            	1735.0      	0.0         	                	;
 Node-343            	1732.0      	0.0         	                	;
 Node-344            	1732.0      	0.0         	                	;
 Node-345            	1728.0      	0.0         	                	;
 Node-346            	1725.0      	0.0         	                	;
 Node-347            	1725.0      	0.0         	                	;
 Node-348            	1728.0      	0.0         	                	;
 Node-349            	1732.0      	0.0         	                	;
 Node-350            	1732.0      	0.0         	                	;
 Node-351            	1733.0      	0.0         	                	;
 Node-352            	1734.0      	0.0         	                	;
 Node-353            	1736.0      	0.0         	                	;
 Node-354            	1739.0      	0.0         	                	;
 Node-355            	1742.0      	0.0         	                	;
 Node-356            	1743.0      	0.0         	                	;
 Node-357            	1745.0      	0.0         	                	;
 Node-358            	1747.0      	0.0         	                	;
 Node-359            	1749.0      	0.0         	                	;
 Node-360            	1751.0      	0.0         	                	;
 Node-361            	1754.0      	0.0         	                	;
 Node-362            	1757.0      	0.0         	                	;
 Node-363            	1757.0      	0.0         	                	;
 Node-364            	1763.0      	0.0         	                	;
 Node-365            	1765.0      	0.0         	                	;
 Node-366            	1767.0      	0.0         	                	;
 Node-367            	1769.0      	0.0         	                	;
 Node-368            	1770.0      	0.0         	                	;
 Node-369            	1773.0      	0.0         	                	;
 Node-370            	1772.0      	0.0         	                	;
 Node-371            	1774.0      	0.0         	                	;
 Node-372            	1773.0      	0.0         	                	;
 Node-373            	1773.0      	0.0         	                	;
 Node-374            	1772.0      	0.0         	                	;
 Node-406            	1772.0      	0.0         	                	;
 Node-376            	1773.0      	0.0         	                	;
 Node-377            	1772.0      	0.0         	                	;
 Node-378            	1771.0      	0.0         	                	;
 Node-379            	1771.0      	0.0         	                	;
 Node-380            	1771.0      	0.0         	                	;
 Node-381            	1772.0      	0.0         	                	;
 Node-382            	1772.0      	0.0         	                	;
 Node-383            	1773.0      	0.0         	                	;
 Node-384            	1772.0      	0.0         	                	;
 Node-385            	1773.0      	0.0         	                	;
 Node-386            	1771.0      	0.0         	                	;
 Node-387            	1772.0      	0.0         	                	;
 Node-388            	1773.0      	0.0         	                	;
 Node-389            	1772.0      	0.0         	                	;
 Node-390            	1771.0      	0.0         	                	;
 Node-391            	1772.0      	0.0         	                	;
 Node-392            	1771.0      	0.0         	                	;
 Node-393            	1771.0      	0.0         	                	;
 Node-394            	1770.0      	0.0         	                	;
 Node-395            	1769.0      	0.0         	                	;
 Node-396            	1768.0      	0.0         	                	;
 Node-397            	1767.0      	0.0         	                	;
 Node-398            	1767.0      	0.0         	                	;
 Node-399            	1768.0      	0.0         	                	;
 Node-400            	1767.0      	0.0         	                	;
 Node-401            	1767.0      	0.0         	                	;
 Node-402            	1767.0      	0.0         	                	;
 Node-403            	1766.0      	0.0         	                	;
 Node-408            	1766.0      	0.0         	                	;
 Node-405            	1766.0      	0.0         	                	;
 Node-407            	1772.0      	0.0         	                	;
 Node-409            	1766.0      	0.0         	                	;
 Node-410            	1765.0      	0.0         	                	;
 Node-411            	1763.0      	0.0         	                	;
 Node-412            	1763.0      	0.0         	                	;
 Node-413            	1762.0      	0.0         	                	;
 Node-414            	1761.0      	0.0         	                	;
 Node-415            	1761.0      	0.0         	                	;
 Node-416            	1760.0      	0.0         	                	;
 Node-417            	1760.0      	0.0         	                	;
 Node-418            	1760.0      	0.0         	                	;
 Node-419            	1760.0      	0.0         	                	;
 Node-420            	1759.0      	0.0         	                	;
 Node-421            	1758.0      	0.0         	                	;
 Node-422            	1759.0      	0.0         	                	;
 Node-423            	1759.0      	0.0         	                	;
 Node-424            	1759.0      	0.0         	                	;
 Node-426            	1758.0      	0.0         	                	;
 Node-427            	1757.0      	0.0         	                	;
 Node-428            	1756.0      	0.0         	                	;
 Node-429            	1754.0      	0.0         	                	;
 Node-430            	1753.0      	0.0         	                	;
 Node-431            	1753.0      	0.0         	                	;
 Node-432            	1751.0      	0.0         	                	;
 Node-433            	1749.0      	0.0         	                	;
 Node-434            	1748.0      	0.0         	                	;
 Node-435            	1746.0      	0.0         	                	;
 Node-436            	1745.0      	0.0         	                	;
 Node-437            	1742.0      	0.0         	                	;
 Node-438            	1740.0      	0.0         	                	;
 Node-439            	1739.0      	0.0         	                	;
 Node-440            	1737.0      	0.0         	                	;
 Node-441            	1734.0      	0.0         	                	;
 Node-442            	1733.0      	0.0         	                	;
 Node-443            	1732.0      	0.0         	                	;
 Node-444            	1731.0      	0.0         	                	;
 Node-445            	1730.0      	0.0         	                	;
 Node-446            	1729.0      	0.0         	                	;
 Node-447            	1727.0      	0.0         	                	;
 Node-448            	1727.0      	0.0         	                	;
 Node-449            	1726.0      	0.0         	                	;
 Node-544            	1793.0      	0.0         	                	;
 Node-451            	1793.0      	0.0         	                	;
 Node-452            	1792.0      	0.507407407 	                	;
 Node-454            	1795.0      	0.0         	                	;
 Node-455            	1795.0      	0.0         	                	;
 Node-456            	1793.0      	0.0         	                	;
 Node-457            	1793.0      	0.0         	                	;
 Node-458            	1793.0      	0.0         	                	;
 Node-459            	1791.0      	0.0         	                	;
 Node-460            	1788.0      	0.0         	                	;
 Node-461            	1784.0      	0.0         	                	;
 Node-462            	1781.0      	0.0         	                	;
 Node-463            	1781.0      	0.0         	                	;
 Node-464            	1779.0      	0.0         	                	;
 Node-465            	1777.0      	0.0         	                	;
 Node-466            	1775.0      	0.0         	                	;
 Node-467            	1772.0      	0.0         	                	;
 Node-468            	1767.0      	0.0         	                	;
 Node-469            	1765.0      	0.0         	                	;
 Node-470            	1762.0      	0.0         	                	;
 Node-471            	1759.0      	0.0         	                	;
 Node-472            	1757.0      	0.0         	                	;
 Node-473            	1753.0      	0.0         	                	;
 Node-474            	1753.0      	0.0         	                	;