[TITLE]
20417 Tare-Cyarumbo WSS in Huye District

[JUNCTIONS]
;ID                  	Elev        	Demand      	Pattern         
 Node-73             	1837.0      	0.0         	                	;
 Node-2              	1836.0      	0.0         	                	;
 Node-3              	1836.0      	0.0         	                	;
 Node-4              	1836.0      	0.0         	                	;
 Node-5              	1835.0      	0.0         	                	;
 Node-6              	1834.0      	0.0         	                	;
 Node-7              	1834.0      	0.0         	                	;
 Node-8              	1835.0      	0.0         	                	;
 Node-9              	1833.0      	0.0         	                	;
 Node-10             	1834.0      	0.0         	                	;
 Node-11             	1834.0      	0.0         	                	;
 Node-12             	1833.0      	0.0         	                	;
 Node-13             	1832.0      	0.0         	                	;
 Node-14             	1832.0      	0.0         	                	;
 Node-15             	1832.0      	0.0         	                	;
 Node-16             	1832.0      	0.0         	                	;
 Node-17             	1830.0      	0.0         	                	;
 Node-18             	1828.0      	0.0         	                	;
 Node-19             	1825.0      	0.0         	                	;
 Node-20             	1825.0      	0.0         	                	;
 Node-21             	1823.0      	0.0         	                	;
 Node-22             	1821.0      	0.0         	                	;
 Node-23             	1821.0      	0.0         	                	;
 Node-24             	1821.0      	0.0         	                	;
 Node-25             	1821.0      	0.0         	                	;
 Node-26             	1820.0      	0.0         	                	;
 Node-27             	1820.0      	0.0         	                	;
 Node-28             	1819.0      	0.0         	                	;
 Node-29             	1818.0      	0.0         	                	;
 Node-30             	1817.0      	0.0         	                	;
 Node-31             	1816.0      	0.0         	                	;
 Node-32             	1816.0      	0.0         	                	;
 Node-33             	1815.0      	0.0         	                	;
 Node-34             	1814.0      	0.0         	                	;
 Node-35             	1813.0      	0.0         	                	;
 Node-36             	1812.0      	0.0         	                	;
 Node-37             	1811.0      	0.0         	                	;
 Node-38             	1810.0      	0.0         	                	;
 Node-39             	1809.0      	0.0         	                	;
 Node-40             	1808.0      	0.0         	                	;
 Node-41             	1807.0      	0.0         	                	;
 Node-42             	1806.0      	0.0         	                	;
 Node-43             	1806.0      	0.0         	                	;
 Node-44             	1805.0      	0.0         	                	;
 Node-45             	1804.0      	0.0         	                	;
 Node-46             	1804.0      	0.0         	                	;
 Node-47             	1804.0      	0.0         	                	;
 Node-48             	1803.0      	0.0         	                	;
 Node-49             	1802.0      	0.0         	                	;
 Node-50             	1802.0      	0.0         	                	;
 Node-213            	1802.0      	0.0         	                	;
 Node-52             	1802.0      	0.0         	                	;
 Node-53             	1800.0      	0.0         	                	;
 Node-54             	1799.0      	0.0         	                	;
 Node-55             	1799.0      	0.0         	                	;
 Node-56             	1798.0      	0.0         	                	;
 Node-57             	1798.0      	0.0         	                	;
 Node-58             	1798.0      	0.0         	                	;
 Node-59             	1797.0      	0.0         	                	;
 Node-60             	1797.0      	0.0         	                	;
 Node-61             	1797.0      	0.0         	                	;
 Node-62             	1797.0      	0.0         	                	;
 Node-63             	1795.0      	0.0         	                	;
 Node-64             	1794.0      	0.0         	                	;
 Node-65             	1793.0      	0.0         	                	;
 Node-66             	1793.0      	0.0         	                	;
 Node-914            	1794.0      	0.0         	                	;
 Node-717            	1837.0      	0.0         	                	;
 Node-1417           	1837.0      	0.0         	                	;
 Node-934            	1816.0      	0.0         	                	;
 Node-75             	1817.0      	0.0         	                	;
 Node-76             	1819.0      	0.0         	                	;
 Node-77             	1819.0      	0.0         	                	;
 Node-78             	1818.0      	0.0         	                	;
 Node-79             	1818.0      	0.0         	                	;
 Node-80             	1819.0      	0.0         	                	;
 Node-81             	1821.0      	0.0         	                	;
 Node-82             	1818.0      	0.0         	                	;
 Node-83             	1817.0      	0.0         	                	;
 Node-84             	1818.0      	0.0         	                	;
 Node-85             	1816.0      	0.0         	                	;
 Node-86             	1816.0      	0.0         	                	;
 Node-87             	1819.0      	0.0         	                	;
 Node-88             	1816.0      	0.0         	                	;
 Node-89             	1819.0      	0.0         	                	;
 Node-90             	1816.0      	0.0         	                	;
 Node-91             	1818.0      	0.0         	                	;
 Node-92             	1821.0      	0.0         	                	;
 Node-93             	1824.0      	0.0         	                	;
 Node-94             	1824.0      	0.0         	                	;
 Node-95             	1823.0      	0.0         	                	;
 Node-96             	1822.0      	0.0         	                	;
 Node-97             	1826.0      	0.0         	                	;
 Node-98             	1826.0      	0.0         	                	;
 Node-99             	1826.0      	0.0         	                	;
 Node-100            	1826.0      	0.0         	                	;
 Node-101            	1826.0      	0.0         	                	;
 Node-102            	1829.0      	0.0         	                	;
 Node-103            	1828.0      	0.0         	                	;
 Node-104            	1828.0      	0.0         	                	;
 Node-105            	1831.0      	0.0         	                	;
 Node-106            	1831.0      	0.0         	                	;
 Node-107            	1832.0      	0.0         	                	;
 Node-479            	1799.0      	0.0         	                	;
 Node-109            	1799.0      	0.0         	                	;
 Node-110            	1797.0      	0.0         	                	;
 Node-111            	1797.0      	0.0         	                	;
 Node-295            	1797.0      	0.0         	                	;
 Node-113            	1795.0      	0.0         	                	;
 Node-114            	1794.0      	0.0         	                	;
 Node-115            	1794.0      	0.0         	                	;
 Node-116            	1794.0      	0.0         	                	;
 Node-117            	1794.0      	0.0         	                	;
 Node-118            	1794.0      	0.0         	                	;
 Node-119            	1794.0      	0.0         	                	;
 Node-121            	2011.0      	0.0         	                	;
 Node-122            	2011.0      	0.0         	                	;
 Node-123            	2006.0      	0.0         	                	;
 Node-124            	2005.0      	0.0         	                	;
 Node-125            	1999.0      	0.0         	                	;
 Node-126            	2000.0      	0.0         	                	;
 Node-127            	1997.0      	0.0         	                	;
 Node-128            	1997.0      	0.0         	                	;
 Node-129            	1997.0      	0.0         	                	;
 Node-130            	1993.0      	0.0         	                	;
 Node-1260           	1993.0      	0.0         	                	;
 Node-495            	1799.0      	0.0         	                	;
 Node-133            	1799.0      	0.0         	                	;
 Node-180            	1802.0      	0.0         	                	;
 Node-135            	1804.0      	0.00462963  	                	;
 Node-497            	1798.0      	0.0         	                	;
 Node-137            	1798.0      	0.0         	                	;
 Node-138            	1797.0      	0.0         	                	;
 Node-139            	1796.0      	0.0         	                	;
 Node-230            	1796.0      	0.0         	                	;
 Node-233            	1795.0      	0.0         	                	;
 Node-142            	1795.0      	0.0         	                	;
 Node-143            	1794.0      	0.0         	                	;
 Node-144            	1794.0      	0.0         	                	;
 Node-145            	1794.0      	0.00462963  	                	;
 Node-484            	1798.0      	0.0         	                	;
 Node-147            	1797.0      	0.0         	                	;
 Node-148            	1798.0      	0.0         	                	;
 Node-149            	1797.0      	0.0         	                	;
 Node-150            	1797.0      	0.003703704 	                	;
 Node-486            	1798.0      	0.0         	                	;
 Node-152            	1798.0      	0.0         	                	;
 Node-153            	1797.0      	0.0         	                	;
 Node-177            	1797.0      	0.0         	                	;
 Node-499            	1799.0      	0.0         	                	;
 Node-156            	1799.0      	0.0         	                	;
 Node-157            	1799.0      	0.0         	                	;
 Node-158            	1798.0      	0.0         	                	;
 Node-159            	1800.0      	0.0         	                	;
 Node-257            	1799.0      	0.0         	                	;
 Node-161            	1800.0      	0.0         	                	;
 Node-162            	1800.0      	0.007407407 	                	;
 Node-173            	1802.0      	0.0         	                	;
 Node-164            	1802.0      	0.0         	                	;
 Node-165            	1802.0      	0.0         	                	;
 Node-166            	1804.0      	0.0         	                	;
 Node-167            	1805.0      	0.0         	                	;
 Node-168            	1805.0      	0.0         	                	;
 Node-169            	1805.0      	0.006481481 	                	;
 Node-483            	1799.0      	0.0         	                	;
 Node-171            	1800.0      	0.0         	                	;
 Node-172            	1801.0      	0.0         	                	;
 Node-174            	1803.0      	0.0         	                	;
 Node-175            	1803.0      	0.0         	                	;
 Node-176            	1805.0      	0.005555556 	                	;
 Node-178            	1797.0      	0.0         	                	;
 Node-179            	1796.0      	0.006481481 	                	;
 Node-181            	1802.0      	0.0         	                	;
 Node-182            	1802.0      	0.0         	                	;
 Node-183            	1802.0      	0.0         	                	;
 Node-184            	1801.0      	0.00462963  	                	;
 Node-247            	1792.0      	0.0         	                	;
 Node-186            	1792.0      	0.008333333 	                	;
 Node-237            	1794.0      	0.0         	                	;
 Node-188            	1794.0      	0.006481481 	                	;
 Node-646            	1807.0      	0.0         	                	;
 Node-190            	1807.0      	0.0         	                	;
 Node-191            	1808.0      	0.0         	                	;
 Node-192            	1808.0      	0.0         	                	;
 Node-193            	1807.0      	0.0         	                	;
 Node-194            	1807.0      	0.0         	                	;
 Node-195            	1807.0      	0.002777778 	                	;
 Node-228            	1788.0      	0.0         	                	;
 Node-211            	1787.0      	0.0         	                	;
 Node-198            	1787.0      	0.0         	                	;
 Node-199            	1787.0      	0.0         	                	;
 Node-200            	1787.0      	0.0         	                	;
 Node-201            	1785.0      	0.0         	                	;
 Node-202            	1785.0      	0.0         	                	;
 Node-203            	1785.0      	0.0         	                	;
 Node-204            	1785.0      	0.0         	                	;
 Node-205            	1785.0      	0.0         	                	;
 Node-206            	1784.0      	0.0         	                	;
 Node-209            	1784.0      	0.0         	                	;
 Node-208            	1784.0      	0.007407407 	                	;
 Node-210            	1785.0      	0.00462963  	                	;
 Node-212            	1787.0      	0.005555556 	                	;
 Node-214            	1802.0      	0.0         	                	;
 Node-215            	1802.0      	0.0         	                	;
 Node-216            	1802.0      	0.0         	                	;
 Node-217            	1802.0      	0.0         	                	;
 Node-218            	1801.0      	0.005555556 	                	;
 Node-245            	1794.0      	0.0         	                	;
 Node-220            	1793.0      	0.0         	                	;
 Node-221            	1794.0      	0.0         	                	;
 Node-222            	1794.0      	0.0         	                	;
 Node-223            	1792.0      	0.00462963  	                	;
 Node-255            	1787.0      	0.0         	                	;
 Node-225            	1787.0      	0.0         	                	;
 Node-226            	1788.0      	0.0         	                	;
 Node-229            	1788.0      	0.008333333 	                	;
 Node-231            	1797.0      	0.0         	                	;
 Node-232            	1797.0      	0.00462963  	                	;
 Node-234            	1795.0      	0.0         	                	;
 Node-235            	1795.0      	0.0         	                	;
 Node-236            	1795.0      	0.0         	                	;
 Node-238            	1794.0      	0.0         	                	;
 Node-244            	1795.0      	0.0         	                	;
 Node-240            	1795.0      	0.0         	                	;
 Node-241            	1794.0      	0.0         	                	;
 Node-242            	1794.0      	0.0         	                	;
 Node-243            	1794.0      	0.007407407 	                	;
 Node-246            	1794.0      	0.0         	                	;
 Node-248            	1792.0      	0.0         	                	;
 Node-249            	1791.0      	0.0         	                	;
 Node-250            	1791.0      	0.0         	                	;
 Node-251            	1790.0      	0.0         	                	;
 Node-252            	1790.0      	0.0         	                	;
 Node-253            	1789.0      	0.0         	                	;
 Node-254            	1789.0      	0.0         	                	;
 Node-256            	1787.0      	0.0         	                	;
 Node-258            	1799.0      	0.0         	                	;
 Node-259            	1799.0      	0.0         	                	;
 Node-260            	1800.0      	0.0         	                	;
 Node-261            	1799.0      	0.0         	                	;
 Node-262            	1800.0      	0.0         	                	;
 Node-263            	1800.0      	0.0         	                	;
 Node-264            	1801.0      	0.0         	                	;
 Node-265            	1803.0      	0.0         	                	;
 Node-266            	1803.0      	0.005555556 	                	;
 Node-498            	1799.0      	0.0         	                	;
 Node-268            	1799.0      	0.0         	                	;
 Node-269            	1801.0      	0.0         	                	;
 Node-270            	1802.0      	0.0         	                	;
 Node-271            	1804.0      	0.0         	                	;
 Node-277            	1804.0      	0.0         	                	;
 Node-273            	1804.0      	0.0         	                	;
 Node-274            	1805.0      	0.0         	                	;
 Node-275            	1806.0      	0.0         	                	;
 Node-276            	1806.0      	0.006481481 	                	;
 Node-278            	1806.0      	0.0         	                	;
 Node-279            	1807.0      	0.0         	                	;
 Node-280            	1808.0      	0.0         	                	;
 Node-281            	1808.0      	0.0         	                	;
 Node-282            	1808.0      	0.0         	                	;
 Node-283            	1808.0      	0.0         	                	;
 Node-473            	1800.0      	0.0         	                	;
 Node-285            	1801.0      	0.0         	                	;
 Node-286            	1801.0      	0.0         	                	;
 Node-287            	1802.0      	0.0         	                	;
 Node-288            	1802.0      	0.005555556 	                	;
 Node-477            	1799.0      	0.0         	                	;
 Node-290            	1800.0      	0.0         	                	;
 Node-291            	1802.0      	0.0         	                	;
 Node-292            	1802.0      	0.0         	                	;
 Node-293            	1802.0      	0.0         	                	;
 Node-294            	1802.0      	0.005555556 	                	;
 Node-296            	1796.0      	0.0         	                	;
 Node-297            	1794.0      	0.0         	                	;
 Node-298            	1792.0      	0.0         	                	;
 Node-299            	1790.0      	0.0         	                	;
 Node-300            	1791.0      	0.003703704 	                	;
 Node-339            	1790.0      	0.0         	                	;
 Node-302            	1790.0      	0.0         	                	;
 Node-303            	1790.0      	0.0         	                	;
 Node-360            	1788.0      	0.0         	                	;
 Node-305            	1789.0      	0.0         	                	;
 Node-306            	1789.0      	0.002777778 	                	;
 Node-362            	1787.0      	0.0         	                	;
 Node-308            	1787.0      	0.0         	                	;
 Node-309            	1785.0      	0.0         	                	;
 Node-310            	1785.0      	0.0         	                	;
 Node-311            	1783.0      	0.0         	                	;
 Node-316            	1783.0      	0.0         	                	;
 Node-313            	1783.0      	0.0         	                	;
 Node-314            	1783.0      	0.0         	                	;
 Node-315            	1783.0      	0.001851852 	                	;
 Node-318            	1783.0      	0.00462963  	                	;
 Node-331            	1784.0      	0.0         	                	;
 Node-320            	1784.0      	0.0         	                	;
 Node-321            	1784.0      	0.0         	                	;
 Node-322            	1783.0      	0.0         	                	;
 Node-323            	1783.0      	0.0         	                	;
 Node-324            	1782.0      	0.0         	                	;
 Node-327            	1780.0      	0.0         	                	;
 Node-326            	1780.0      	0.003703704 	                	;
 Node-328            	1780.0      	0.0         	                	;
 Node-329            	1780.0      	0.002777778 	                	;
 Node-365            	1786.0      	0.0         	                	;
 Node-332            	1782.0      	0.0         	                	;
 Node-333            	1780.0      	0.0         	                	;
 Node-334            	1780.0      	0.00462963  	                	;
 Node-367            	1787.0      	0.0         	                	;
 Node-336            	1787.0      	0.0         	                	;
 Node-337            	1789.0      	0.0         	                	;
 Node-338            	1789.0      	0.0         	                	;
 Node-340            	1791.0      	0.0         	                	;
 Node-341            	1791.0      	0.008333333 	                	;
 Node-552            	1796.0      	0.0         	                	;
 Node-343            	1796.0      	0.0         	                	;
 Node-344            	1796.0      	0.0         	                	;
 Node-345            	1795.0      	0.0         	                	;
 Node-346            	1795.0      	0.012962963 	                	;
 Node-559            	1792.0      	0.0         	                	;
 Node-348            	1792.0      	0.0         	                	;
 Node-560            	1792.0      	0.0         	                	;
 Node-350            	1792.0      	0.0         	                	;
 Node-351            	1791.0      	0.0         	                	;
 Node-352            	1791.0      	0.0         	                	;
 Node-566            	1789.0      	0.0         	                	;
 Node-354            	1788.0      	0.0         	                	;
 Node-355            	1788.0      	0.0         	                	;
 Node-356            	1788.0      	0.0         	                	;
 Node-357            	1788.0      	0.0         	                	;
 Node-358            	1788.0      	0.0         	                	;
 Node-359            	1788.0      	0.0         	                	;
 Node-361            	1787.0      	0.0         	                	;
 Node-363            	1787.0      	0.0         	                	;
 Node-364            	1786.0      	0.0         	                	;
 Node-366            	1785.0      	0.0         	                	;
 Node-368            	1787.0      	0.0         	                	;
 Node-458            	1826.0      	0.0         	                	;
 Node-370            	1826.0      	0.0         	                	;
 Node-371            	1824.0      	0.0         	                	;
 Node-372            	1825.0      	0.0         	                	;
 Node-373            	1825.0      	0.0         	                	;
 Node-374            	1825.0      	0.0         	                	;
 Node-375            	1823.0      	0.0         	                	;
 Node-376            	1824.0      	0.0         	                	;
 Node-377            	1824.0      	0.005555556 	                	;
 Node-777            	1813.0      	0.0         	                	;
 Node-379            	1813.0      	0.0         	                	;
 Node-380            	1816.0      	0.003703704 	                	;
 Node-766            	1808.0      	0.0         	                	;
 Node-382            	1809.0      	0.0         	                	;
 Node-383            	1811.0      	0.0         	                	;
 Node-384            	1812.0      	0.0         	                	;
 Node-385            	1813.0      	0.0         	                	;
 Node-386            	1816.0      	0.0         	                	;
 Node-387            	1818.0      	0.0         	                	;
 Node-388            	1820.0      	0.0         	                	;
 Node-389            	1819.0      	0.0         	                	;
 Node-390            	1819.0      	0.0         	                	;
 Node-391            	1819.0      	0.0         	                	;
 Node-392            	1819.0      	0.0         	                	;
 Node-393            	1820.0      	0.0         	                	;
 Node-394            	1820.0      	0.0         	                	;
 Node-395            	1821.0      	0.0         	                	;
 Node-396            	1823.0      	0.0         	                	;
 Node-397            	1823.0      	0.005555556 	                	;
 Node-760            	1803.0      	0.0         	                	;
 Node-399            	1805.0      	0.0         	                	;
 Node-400            	1805.0      	0.0         	                	;
 Node-401            	1806.0      	0.00462963  	                	;
 Node-690            	1823.0      	0.0         	                	;
 Node-403            	1823.0      	0.0         	                	;
 Node-404            	1824.0      	0.0         	                	;
 Node-405            	1824.0      	0.0         	                	;
 Node-406            	1824.0      	0.0         	                	;
 Node-454            	1826.0      	0.0         	                	;
 Node-408            	1823.0      	0.0         	                	;
 Node-409            	1820.0      	0.0         	                	;
 Node-410            	1820.0      	0.0         	                	;
 Node-411            	1814.0      	0.0         	                	;
 Node-412            	1814.0      	0.0         	                	;
 Node-413            	1812.0      	0.0         	                	;
 Node-414            	1810.0      	0.0         	                	;
 Node-415            	1807.0      	0.0         	                	;
 Node-416            	1807.0      	0.0         	                	;
 Node-417            	1805.0      	0.0         	                	;
 Node-418            	1805.0      	0.0         	                	;
 Node-419            	1803.0      	0.0         	                	;
 Node-420            	1802.0      	0.0         	                	;
 Node-446            	1799.0      	0.0         	                	;
 Node-422            	1799.0      	0.0         	                	;
 Node-423            	1793.0      	0.0         	                	;
 Node-424            	1791.0      	0.0         	                	;
 Node-425            	1791.0      	0.0         	                	;
 Node-426            	1791.0      	0.0         	                	;
 Node-427            	1791.0      	0.0         	                	;
 Node-428            	1789.0      	0.0         	                	;
 Node-429            	1789.0      	0.0         	                	;
 Node-438            	1787.0      	0.0         	                	;
 Node-431            	1787.0      	0.0         	                	;
 Node-432            	1787.0      	0.0         	                	;
 Node-433            	1787.0      	0.0         	                	;
 Node-434            	1785.0      	0.0         	                	;
 Node-435            	1784.0      	0.0         	                	;
 Node-436            	1785.0      	0.0         	                	;
 Node-437            	1785.0      	0.003703704 	                	;
 Node-439            	1787.0      	0.0         	                	;
 Node-440            	1787.0      	0.0         	                	;
 Node-441            	1787.0      	0.0         	                	;
 Node-442            	1787.0      	0.0         	                	;
 Node-443            	1787.0      	0.0         	                	;
 Node-444            	1790.0      	0.0         	                	;
 Node-445            	1790.0      	0.0         	                	;
 Node-447            	1799.0      	0.0         	                	;
 Node-448            	1797.0      	0.0         	                	;
 Node-449            	1797.0      	0.0         	                	;
 Node-450            	1800.0      	0.0         	                	;
 Node-451            	1800.0      	0.0         	                	;
 Node-452            	1800.0      	0.0         	                	;
 Node-453            	1799.0      	0.00462963  	                	;
 Node-455            	1824.0      	0.0         	                	;
 Node-456            	1826.0      	0.0         	                	;
 Node-457            	1826.0      	0.0         	                	;
 Node-459            	1823.0      	0.0         	                	;
 Node-460            	1823.0      	0.0         	                	;
 Node-461            	1821.0      	0.0         	                	;
 Node-462            	1821.0      	0.0         	                	;
 Node-463            	1819.0      	0.00462963  	                	;
 Node-541            	1800.0      	0.0         	                	;
 Node-465            	1800.0      	0.0         	                	;
 Node-466            	1800.0      	0.0         	                	;
 Node-470            	1800.0      	0.0         	                	;
 Node-469            	1799.0      	0.0         	                	;
 Node-471            	1800.0      	0.0         	                	;
 Node-472            	1800.0      	0.0         	                	;
 Node-474            	1800.0      	0.0         	                	;
 Node-475            	1800.0      	0.0         	                	;
 Node-476            	1800.0      	0.0         	                	;
 Node-478            	1799.0      	0.0         	                	;
 Node-480            	1800.0      	0.0         	                	;
 Node-481            	1800.0      	0.0         	                	;
 Node-482            	1799.0      	0.0         	                	;
 Node-485            	1798.0      	0.0         	                	;
 Node-487            	1798.0      	0.0         	                	;
 Node-488            	1799.0      	0.0         	                	;
 Node-489            	1799.0      	0.0         	                	;