[TITLE]
20418 Mukura WSS in Huye District

[JUNCTIONS]
;ID                  	Elev        	Demand      	Pattern         
 Node-360            	1781.0      	0.0         	                	;
 Node-2              	1780.0      	0.0         	                	;
 Node-3              	1780.0      	0.0         	                	;
 Node-4              	1780.0      	0.0         	                	;
 Node-5              	1781.0      	0.0         	                	;
 Node-6              	1779.0      	0.0         	                	;
 Node-7              	1778.0      	0.0         	                	;
 Node-8              	1778.0      	0.00462963  	                	;
 Node-10             	1801.0      	0.0         	                	;
 Node-11             	1800.0      	0.0         	                	;
 Node-368            	1800.0      	0.0         	                	;
 Node-116            	1764.0      	0.0         	                	;
 Node-14             	1763.0      	0.0         	                	;
 Node-15             	1765.0      	0.0         	                	;
 Node-16             	1765.0      	0.0         	                	;
 Node-17             	1766.0      	0.0         	                	;
 Node-18             	1766.0      	0.0         	                	;
 Node-19             	1766.0      	0.0         	                	;
 Node-20             	1767.0      	0.0         	                	;
 Node-21             	1767.0      	0.0         	                	;
 Node-22             	1768.0      	0.0         	                	;
 Node-23             	1770.0      	0.0         	                	;
 Node-24             	1771.0      	0.0         	                	;
 Node-25             	1772.0      	0.0         	                	;
 Node-26             	1771.0      	0.0         	                	;
 Node-27             	1772.0      	0.0         	                	;
 Node-28             	1773.0      	0.0         	                	;
 Node-29             	1775.0      	0.0         	                	;
 Node-30             	1776.0      	0.0         	                	;
 Node-31             	1775.0      	0.0         	                	;
 Node-32             	1775.0      	0.0         	                	;
 Node-33             	1775.0      	0.0         	                	;
 Node-34             	1776.0      	0.0         	                	;
 Node-35             	1776.0      	0.0         	                	;
 Node-36             	1776.0      	0.0         	                	;
 Node-37             	1777.0      	0.0         	                	;
 Node-38             	1777.0      	0.0         	                	;
 Node-39             	1779.0      	0.0         	                	;
 Node-40             	1779.0      	0.0         	                	;
 Node-41             	1778.0      	0.0         	                	;
 Node-42             	1777.0      	0.0         	                	;
 Node-43             	1777.0      	0.0         	                	;
 Node-44             	1776.0      	0.0         	                	;
 Node-45             	1777.0      	0.0         	                	;
 Node-46             	1777.0      	0.0         	                	;
 Node-47             	1777.0      	0.0         	                	;
 Node-48             	1777.0      	0.0         	                	;
 Node-129            	1785.0      	0.0         	                	;
 Node-50             	1786.0      	0.0         	                	;
 Node-51             	1785.0      	0.0         	                	;
 Node-52             	1784.0      	0.0         	                	;
 Node-53             	1784.0      	0.0         	                	;
 Node-54             	1784.0      	0.0         	                	;
 Node-55             	1785.0      	0.0         	                	;
 Node-56             	1783.0      	0.0         	                	;
 Node-57             	1784.0      	0.0         	                	;
 Node-58             	1784.0      	0.0         	                	;
 Node-59             	1781.0      	0.0         	                	;
 Node-60             	1784.0      	0.0         	                	;
 Node-61             	1782.0      	0.0         	                	;
 Node-62             	1779.0      	0.0         	                	;
 Node-63             	1779.0      	0.0         	                	;
 Node-64             	1780.0      	0.0         	                	;
 Node-65             	1778.0      	0.0         	                	;
 Node-66             	1778.0      	0.0         	                	;
 Node-67             	1780.0      	0.0         	                	;
 Node-68             	1779.0      	0.0         	                	;
 Node-69             	1780.0      	0.0         	                	;
 Node-70             	1777.0      	0.0         	                	;
 Node-71             	1777.0      	0.0         	                	;
 Node-72             	1776.0      	0.0         	                	;
 Node-73             	1777.0      	0.0         	                	;
 Node-74             	1775.0      	0.0         	                	;
 Node-75             	1777.0      	0.0         	                	;
 Node-76             	1774.0      	0.0         	                	;
 Node-77             	1776.0      	0.0         	                	;
 Node-78             	1776.0      	0.0         	                	;
 Node-79             	1777.0      	0.0         	                	;
 Node-80             	1778.0      	0.0         	                	;
 Node-81             	1779.0      	0.0         	                	;
 Node-82             	1778.0      	0.0         	                	;
 Node-83             	1777.0      	0.0         	                	;
 Node-84             	1777.0      	0.0         	                	;
 Node-85             	1776.0      	0.0         	                	;
 Node-86             	1776.0      	0.0         	                	;
 Node-87             	1776.0      	0.0         	                	;
 Node-88             	1775.0      	0.0         	                	;
 Node-409            	1813.0      	0.0         	                	;
 Node-90             	1813.0      	0.0         	                	;
 Node-91             	1810.0      	0.0         	                	;
 Node-92             	1809.0      	0.0         	                	;
 Node-93             	1806.0      	0.0         	                	;
 Node-94             	1801.0      	0.0         	                	;
 Node-95             	1801.0      	0.0         	                	;
 Node-96             	1797.0      	0.0         	                	;
 Node-97             	1797.0      	0.0         	                	;
 Node-98             	1794.0      	0.0         	                	;
 Node-99             	1791.0      	0.0         	                	;
 Node-100            	1789.0      	0.0         	                	;
 Node-101            	1789.0      	0.0         	                	;
 Node-102            	1785.0      	0.0         	                	;
 Node-103            	1785.0      	0.0         	                	;
 Node-104            	1784.0      	0.0         	                	;
 Node-105            	1780.0      	0.0         	                	;
 Node-106            	1775.0      	0.0         	                	;
 Node-107            	1781.0      	0.0         	                	;
 Node-108            	1774.0      	0.0         	                	;
 Node-109            	1773.0      	0.0         	                	;
 Node-110            	1773.0      	0.0         	                	;
 Node-111            	1768.0      	0.0         	                	;
 Node-112            	1766.0      	0.0         	                	;
 Node-113            	1765.0      	0.0         	                	;
 Node-114            	1765.0      	0.0         	                	;
 Node-115            	1764.0      	0.0         	                	;
 Node-330            	1789.0      	0.0         	                	;
 Node-118            	1789.0      	0.0         	                	;
 Node-119            	1788.0      	0.0         	                	;
 Node-120            	1786.0      	0.0         	                	;
 Node-121            	1782.0      	0.0         	                	;
 Node-122            	1781.0      	0.0         	                	;
 Node-124            	1785.0      	0.0         	                	;
 Node-125            	1785.0      	0.0         	                	;
 Node-130            	1785.0      	0.0         	                	;
 Node-131            	1783.0      	0.0         	                	;
 Node-133            	1800.0      	0.0         	                	;
 Node-134            	1798.0      	0.0         	                	;
 Node-135            	1796.0      	0.0         	                	;
 Node-136            	1796.0      	0.0         	                	;
 Node-137            	1793.0      	0.0         	                	;
 Node-138            	1793.0      	0.0         	                	;
 Node-139            	1790.0      	0.0         	                	;
 Node-140            	1787.0      	0.0         	                	;
 Node-141            	1786.0      	0.0         	                	;
 Node-142            	1784.0      	0.0         	                	;
 Node-143            	1782.0      	0.0         	                	;
 Node-144            	1782.0      	0.0         	                	;
 Node-145            	1780.0      	0.0         	                	;
 Node-146            	1777.0      	0.0         	                	;
 Node-147            	1776.0      	0.0         	                	;
 Node-148            	1774.0      	0.0         	                	;
 Node-149            	1772.0      	0.0         	                	;
 Node-150            	1771.0      	0.0         	                	;
 Node-151            	1771.0      	0.0         	                	;
 Node-152            	1770.0      	0.0         	                	;
 Node-153            	1770.0      	0.0         	                	;
 Node-154            	1769.0      	0.0         	                	;
 Node-155            	1770.0      	0.0         	                	;
 Node-156            	1768.0      	0.0         	                	;
 Node-157            	1767.0      	0.0         	                	;
 Node-158            	1766.0      	0.0         	                	;
 Node-159            	1766.0      	0.0         	                	;
 Node-160            	1766.0      	0.0         	                	;
 Node-161            	1800.0      	0.0         	                	;
 Node-162            	1800.0      	0.0         	                	;
 Node-163            	1798.0      	0.0         	                	;
 Node-164            	1797.0      	0.0         	                	;
 Node-165            	1794.0      	0.0         	                	;
 Node-166            	1792.0      	0.0         	                	;
 Node-167            	1792.0      	0.0         	                	;
 Node-168            	1789.0      	0.0         	                	;
 Node-169            	1787.0      	0.0         	                	;
 Node-170            	1785.0      	0.0         	                	;
 Node-171            	1784.0      	0.0         	                	;
 Node-172            	1782.0      	0.0         	                	;
 Node-173            	1782.0      	0.0         	                	;
 Node-174            	1780.0      	0.0         	                	;
 Node-175            	1779.0      	0.0         	                	;
 Node-176            	1777.0      	0.0         	                	;
 Node-177            	1777.0      	0.0         	                	;
 Node-178            	1776.0      	0.0         	                	;
 Node-179            	1773.0      	0.0         	                	;
 Node-180            	1773.0      	0.0         	                	;
 Node-181            	1772.0      	0.0         	                	;
 Node-182            	1772.0      	0.0         	                	;
 Node-183            	1771.0      	0.0         	                	;
 Node-184            	1771.0      	0.0         	                	;
 Node-185            	1769.0      	0.0         	                	;
 Node-186            	1768.0      	0.0         	                	;
 Node-187            	1768.0      	0.0         	                	;
 Node-188            	1766.0      	0.0         	                	;
 Node-189            	1766.0      	0.0         	                	;
 Node-190            	1764.0      	0.0         	                	;
 Node-191            	1763.0      	0.0         	                	;
 Node-192            	1762.0      	0.0         	                	;
 Node-193            	1761.0      	0.0         	                	;
 Node-194            	1761.0      	0.0         	                	;
 Node-195            	1761.0      	0.0         	                	;
 Node-198            	1756.0      	0.0         	                	;
 Node-197            	1755.0      	0.0         	                	;
 Node-199            	1756.0      	0.0         	                	;
 Node-200            	1756.0      	0.0         	                	;
 Node-201            	1755.0      	0.0         	                	;
 Node-202            	1755.0      	0.0         	                	;
 Node-203            	1755.0      	0.0         	                	;
 Node-204            	1755.0      	0.0         	                	;
 Node-205            	1756.0      	0.0         	                	;
 Node-206            	1756.0      	0.0         	                	;
 Node-207            	1756.0      	0.0         	                	;
 Node-208            	1756.0      	0.0         	                	;
 Node-209            	1756.0      	0.0         	                	;
 Node-210            	1755.0      	0.0         	                	;
 Node-211            	1755.0      	0.0         	                	;
 Node-212            	1755.0      	0.0         	                	;
 Node-213            	1755.0      	0.0         	                	;
 Node-214            	1755.0      	0.0         	                	;
 Node-215            	1755.0      	0.0         	                	;
 Node-216            	1755.0      	0.0         	                	;
 Node-217            	1756.0      	0.0         	                	;
 Node-218            	1756.0      	0.0         	                	;
 Node-219            	1756.0      	0.0         	                	;
 Node-220            	1757.0      	0.0         	                	;
 Node-221            	1757.0      	0.0         	                	;
 Node-222            	1757.0      	0.0         	                	;
 Node-223            	1758.0      	0.002777778 	                	;
 Node-225            	1781.0      	0.0         	                	;
 Node-226            	1781.0      	0.0         	                	;
 Node-227            	1780.0      	0.0         	                	;
 Node-228            	1778.0      	0.0         	                	;
 Node-229            	1776.0      	0.0         	                	;
 Node-230            	1774.0      	0.0         	                	;
 Node-231            	1774.0      	0.0         	                	;
 Node-232            	1773.0      	0.0         	                	;
 Node-233            	1773.0      	0.0         	                	;
 Node-359            	1781.0      	0.0         	                	;
 Node-235            	1780.0      	0.0         	                	;
 Node-236            	1779.0      	0.0         	                	;
 Node-237            	1778.0      	0.0         	                	;
 Node-238            	1777.0      	0.0         	                	;
 Node-239            	1775.0      	0.0         	                	;
 Node-240            	1774.0      	0.0         	                	;
 Node-241            	1771.0      	0.0         	                	;
 Node-242            	1771.0      	0.0         	                	;
 Node-243            	1770.0      	0.0         	                	;
 Node-244            	1769.0      	0.0         	                	;
 Node-245            	1769.0      	0.0         	                	;
 Node-246            	1767.0      	0.0         	                	;
 Node-247            	1767.0      	0.0         	                	;
 Node-248            	1767.0      	0.0         	                	;
 Node-249            	1765.0      	0.0         	                	;
 Node-250            	1765.0      	0.0         	                	;
 Node-251            	1764.0      	0.0         	                	;
 Node-252            	1762.0      	0.0         	                	;
 Node-253            	1762.0      	0.0         	                	;
 Node-255            	1762.0      	0.0         	                	;
 Node-256            	1762.0      	0.0         	                	;
 Node-257            	1762.0      	0.0         	                	;
 Node-258            	1763.0      	0.0         	                	;
 Node-259            	1763.0      	0.0         	                	;
 Node-260            	1764.0      	0.0         	                	;
 Node-261            	1765.0      	0.0         	                	;
 Node-262            	1763.0      	0.0         	                	;
 Node-263            	1765.0      	0.0         	                	;
 Node-264            	1766.0      	0.0         	                	;
 Node-265            	1766.0      	0.0         	                	;
 Node-266            	1766.0      	0.0         	                	;
 Node-267            	1766.0      	0.0         	                	;
 Node-268            	1764.0      	0.0         	                	;
 Node-269            	1768.0      	0.0         	                	;
 Node-270            	1768.0      	0.0         	                	;
 Node-271            	1769.0      	0.0         	                	;
 Node-272            	1770.0      	0.0         	                	;
 Node-273            	1769.0      	0.0         	                	;
 Node-274            	1770.0      	0.0         	                	;
 Node-275            	1772.0      	0.0         	                	;
 Node-277            	1772.0      	0.0         	                	;
 Node-278            	1774.0      	0.0         	                	;
 Node-279            	1775.0      	0.0         	                	;
 Node-280            	1772.0      	0.0         	                	;
 Node-281            	1774.0      	0.0         	                	;
 Node-282            	1771.0      	0.0         	                	;
 Node-283            	1771.0      	0.0         	                	;
 Node-284            	1771.0      	0.0         	                	;
 Node-285            	1769.0      	0.0         	                	;
 Node-286            	1772.0      	0.0         	                	;
 Node-287            	1771.0      	0.0         	                	;
 Node-288            	1770.0      	0.0         	                	;
 Node-289            	1769.0      	0.0         	                	;
 Node-290            	1770.0      	0.0         	                	;
 Node-291            	1768.0      	0.0         	                	;
 Node-292            	1768.0      	0.0         	                	;
 Node-293            	1767.0      	0.0         	                	;
 Node-294            	1766.0      	0.0         	                	;
 Node-295            	1765.0      	0.0         	                	;
 Node-296            	1763.0      	0.0         	                	;
 Node-297            	1760.0      	0.0         	                	;
 Node-298            	1760.0      	0.0         	                	;
 Node-299            	1758.0      	0.0         	                	;
 Node-300            	1759.0      	0.0         	                	;
 Node-301            	1756.0      	0.0         	                	;
 Node-302            	1757.0      	0.0         	                	;
 Node-303            	1758.0      	0.0         	                	;
 Node-304            	1758.0      	0.0         	                	;
 Node-305            	1758.0      	0.0         	                	;
 Node-308            	1800.0      	0.0         	                	;
 Node-309            	1800.0      	0.0         	                	;
 Node-310            	1799.0      	0.0         	                	;
 Node-311            	1799.0      	0.0         	                	;
 Node-312            	1798.0      	0.0         	                	;
 Node-313            	1798.0      	0.0         	                	;
 Node-314            	1796.0      	0.0         	                	;
 Node-315            	1796.0      	0.0         	                	;
 Node-316            	1795.0      	0.0         	                	;
 Node-317            	1794.0      	0.0         	                	;
 Node-318            	1794.0      	0.0         	                	;
 Node-319            	1792.0      	0.0         	                	;
 Node-320            	1792.0      	0.0         	                	;
 Node-321            	1793.0      	0.0         	                	;
 Node-322            	1791.0      	0.0         	                	;
 Node-323            	1791.0      	0.0         	                	;
 Node-324            	1789.0      	0.0         	                	;
 Node-325            	1789.0      	0.0         	                	;
 Node-326            	1789.0      	0.0         	                	;
 Node-327            	1791.0      	0.0         	                	;
 Node-328            	1790.0      	0.0         	                	;
 Node-331            	1790.0      	0.0         	                	;
 Node-332            	1788.0      	0.0         	                	;
 Node-333            	1788.0      	0.0         	                	;
 Node-334            	1788.0      	0.0         	                	;
 Node-335            	1786.0      	0.0         	                	;
 Node-336            	1784.0      	0.0         	                	;
 Node-337            	1782.0      	0.0         	                	;
 Node-338            	1782.0      	0.0         	                	;
 Node-339            	1782.0      	0.0         	                	;
 Node-340            	1783.0      	0.0         	                	;
 Node-341            	1782.0      	0.0         	                	;
 Node-342            	1782.0      	0.0         	                	;
 Node-343            	1783.0      	0.0         	                	;
 Node-344            	1784.0      	0.0         	                	;
 Node-345            	1783.0      	0.0         	                	;
 Node-346            	1783.0      	0.0         	                	;
 Node-347            	1783.0      	0.0         	                	;
 Node-348            	1784.0      	0.0         	                	;
 Node-349            	1783.0      	0.0         	                	;
 Node-350            	1783.0      	0.0         	                	;
 Node-351            	1783.0      	0.0         	                	;
 Node-352            	1782.0      	0.0         	                	;
 Node-353            	1782.0      	0.0         	                	;
 Node-354            	1781.0      	0.0         	                	;
 Node-355            	1781.0      	0.0         	                	;
 Node-356            	1781.0      	0.0         	                	;
 Node-357            	1781.0      	0.0         	                	;
 Node-361            	1781.0      	0.0         	                	;
 Node-365            	1801.0      	0.0         	                	;
 Node-366            	1800.0      	0.0         	                	;
 Node-369            	1800.0      	0.0         	                	;
 Node-370            	1798.0      	0.0         	                	;
 Node-371            	1798.0      	0.0         	                	;
 Node-372            	1798.0      	0.0         	                	;
 Node-374            	1835.0      	0.0         	                	;
 Node-375            	1835.0      	0.0         	                	;
 Node-376            	1836.0      	0.0         	                	;
 Node-377            	1836.0      	0.0         	                	;
 Node-378            	1836.0      	0.0         	                	;
 Node-434            	1827.0      	0.0         	                	;
 Node-382            	1827.0      	0.0         	                	;
 Node-383            	1827.0      	0.0         	                	;
 Node-384            	1827.0      	0.0         	                	;
 Node-385            	1828.0      	0.0         	                	;
 Node-386            	1829.0      	0.0         	                	;
 Node-387            	1830.0      	0.0         	                	;
 Node-388            	1830.0      	0.0         	                	;
 Node-389            	1828.0      	0.0         	                	;
 Node-390            	1826.0      	0.0         	                	;
 Node-391            	1825.0      	0.0         	                	;
 Node-392            	1825.0      	0.0         	                	;
 Node-393            	1824.0      	0.0         	                	;
 Node-394            	1821.0      	0.0         	                	;
 Node-395            	1820.0      	0.0         	                	;
 Node-396            	1821.0      	0.0         	                	;
 Node-397            	1823.0      	0.0         	                	;
 Node-398            	1821.0      	0.0         	                	;
 Node-399            	1823.0      	0.0         	                	;
 Node-400            	1821.0      	0.0         	                	;
 Node-401            	1823.0      	0.0         	                	;
 Node-402            	1820.0      	0.0         	                	;
 Node-403            	1819.0      	0.0         	                	;
 Node-404            	1815.0      	0.0         	                	;
 Node-405            	1816.0      	0.0         	                	;
 Node-406            	1817.0      	0.0         	                	;
 Node-407            	1815.0      	0.0         	                	;
 Node-410            	1813.0      	0.0         	                	;
 Node-411            	1812.0      	0.0         	                	;
 Node-412            	1810.0      	0.0         	                	;
 Node-413            	1808.0      	0.0         	                	;
 Node-414            	1808.0      	0.0         	                	;
 Node-415            	1807.0      	0.0         	                	;
 Node-416            	1807.0      	0.0         	                	;
 Node-417            	1806.0      	0.0         	                	;
 Node-418            	1807.0      	0.0         	                	;
 Node-419            	1807.0      	0.0         	                	;
 Node-420            	1807.0      	0.0         	                	;
 Node-421            	1805.0      	0.0         	                	;
 Node-422            	1804.0      	0.0         	                	;
 Node-423            	1803.0      	0.0         	                	;
 Node-424            	1802.0      	0.0         	                	;
 Node-425            	1801.0      	0.0         	                	;
 Node-428            	1844.0      	0.0         	                	;
 Node-429            	1835.0      	0.0         	                	;
 Node-430            	1835.0      	0.0         	                	;
 Node-431            	1835.0      	0.0         	                	;
 Node-432            	1835.0      	0.0         	                	;
 Node-433            	1836.0      	0.0         	                	;
 Node-435            	1777.0      	0.0         	                	;
 Node-436            	1777.0      	0.0         	                	;
 Node-437            	1779.0      	0.0         	                	;
 Node-438            	1777.0      	0.0         	                	;
 Node-439            	1780.0      	0.0         	                	;
 Node-440            	1779.0      	0.0         	                	;
 Node-441            	1780.0      	0.0         	                	;
 Node-442            	1778.0      	0.0         	                	;
 Node-443            	1778.0      	0.0         	                	;
 Node-444            	1780.0      	0.0         	                	;
 Node-445            	1779.0      	0.0         	                	;
 Node-446            	1783.0      	0.0         	                	;
 Node-447            	1782.0      	0.0         	                	;
 Node-448            	1785.0      	0.0         	                	;
 Node-449            	1784.0      	0.0         	                	;
 Node-450            	1785.0      	0.0         	                	;
 Node-451            	1784.0      	0.0         	                	;
 Node-452            	1784.0      	0.0         	                	;
 Node-453            	1786.0      	0.0         	                	;
 Node-454            	1785.0      	0.0         	                	;
 Node-455            	1784.0      	0.0         	                	;
 Node-456            	1784.0      	0.0         	                	;
 Node-457            	1784.0      	0.0         	                	;
 Node-458            	1785.0      	0.0         	                	;
 Node-459            	1786.0      	0.0         	                	;

[RESERVOIRS]
;ID                  	Head        	Pattern         
 Spring-5391         	1844        	                	;
 Spring-5296         	1835        	                	;

[TANKS]
;ID                  	Elevation   	InitLevel   	MinLevel    	MaxLevel    	Diameter    	MinVol      	VolCurve
 Tank-18982          	1785        	0.75        	0.15000000000000002     	1.5         	5           	10.0        	                	;
 Tank-18983          	1801        	0.75        	0.15000000000000002     	1.5         	5           	10.0        	                	;

[PIPES]
;ID                  	Node1               	Node2               	Length      	Diameter    	Roughness   	MinorLoss   	Status
 Pipe-108839-0       	Node-360            	Node-2              	3.0         	25          	100         	0           	Open  	;
 Pipe-108839-1       	Node-2              	Node-3              	1.107       	25          	100         	0           	Open  	;
 Pipe-108839-2       	Node-3              	Node-4              	3.159       	25          	100         	0           	Open  	;
 Pipe-108839-3       	Node-4              	Node-5              	5.754       	25          	100         	0           	Open  	;