[TITLE]
20419 Kibingo WSS in Huye District

[JUNCTIONS]
;ID                  	Elev        	Demand      	Pattern         
 Node-337            	1850.0      	0.0         	                	;
 Node-2              	1851.0      	0.0         	                	;
 Node-3              	1851.0      	0.0         	                	;
 Node-4              	1851.0      	0.0         	                	;
 Node-5              	1853.0      	0.0         	                	;
 Node-85             	1803.0      	0.0         	                	;
 Node-7              	1803.0      	0.0         	                	;
 Node-651            	1799.0      	0.0         	                	;
 Node-9              	1799.0      	0.00462963  	                	;
 Node-323            	1849.0      	0.0         	                	;
 Node-11             	1847.0      	0.0         	                	;
 Node-12             	1846.0      	0.003703704 	                	;
 Node-329            	1849.0      	0.0         	                	;
 Node-14             	1849.0      	0.0         	                	;
 Node-315            	1849.0      	0.0         	                	;
 Node-16             	1849.0      	0.0         	                	;
 Node-17             	1852.0      	0.0         	                	;
 Node-18             	1852.0      	0.0         	                	;
 Node-19             	1853.0      	0.0         	                	;
 Node-20             	1855.0      	0.0         	                	;
 Node-21             	1855.0      	0.0         	                	;
 Node-22             	1855.0      	0.0         	                	;
 Node-23             	1855.0      	0.0         	                	;
 Node-24             	1855.0      	0.0         	                	;
 Node-290            	1850.0      	0.0         	                	;
 Node-26             	1849.0      	0.0         	                	;
 Node-27             	1847.0      	0.0         	                	;
 Node-28             	1847.0      	0.0         	                	;
 Node-29             	1846.0      	0.0         	                	;
 Node-30             	1846.0      	0.0         	                	;
 Node-31             	1845.0      	0.0         	                	;
 Node-32             	1843.0      	0.0         	                	;
 Node-33             	1843.0      	0.0         	                	;
 Node-475            	1821.0      	0.0         	                	;
 Node-35             	1822.0      	0.0         	                	;
 Node-36             	1825.0      	0.0         	                	;
 Node-37             	1826.0      	0.0         	                	;
 Node-38             	1832.0      	0.0         	                	;
 Node-39             	1832.0      	0.0         	                	;
 Node-40             	1832.0      	0.003703704 	                	;
 Node-644            	1801.0      	0.0         	                	;
 Node-42             	1801.0      	0.002777778 	                	;
 Node-645            	1801.0      	0.0         	                	;
 Node-44             	1799.0      	0.003703704 	                	;
 Node-682            	1766.0      	0.0         	                	;
 Node-46             	1766.0      	0.812037037 	                	;
 Node-640            	1803.0      	0.0         	                	;
 Node-48             	1802.0      	0.0         	                	;
 Node-49             	1802.0      	0.0         	                	;
 Node-50             	1802.0      	0.0         	                	;
 Node-158            	1802.0      	0.0         	                	;
 Node-52             	1802.0      	0.0         	                	;
 Node-80             	1802.0      	0.0         	                	;
 Node-55             	1849.0      	0.0         	                	;
 Node-56             	1848.0      	0.0         	                	;
 Node-57             	1848.0      	0.0         	                	;
 Node-612            	1822.0      	0.0         	                	;
 Node-59             	1822.0      	0.0         	                	;
 Node-60             	1822.0      	0.005555556 	                	;
 Node-614            	1823.0      	0.0         	                	;
 Node-62             	1823.0      	0.0         	                	;
 Node-626            	1829.0      	0.0         	                	;
 Node-630            	1829.0      	0.0         	                	;
 Node-65             	1829.0      	0.0         	                	;
 Node-66             	1828.0      	0.0         	                	;
 Node-67             	1828.0      	0.0         	                	;
 Node-68             	1828.0      	0.0         	                	;
 Node-69             	1828.0      	0.0         	                	;
 Node-694            	1768.0      	0.0         	                	;
 Node-71             	1768.0      	0.0         	                	;
 Node-693            	1768.0      	0.0         	                	;
 Node-73             	1768.0      	0.0         	                	;
 Node-74             	1768.0      	0.0         	                	;
 Node-75             	1768.0      	0.0         	                	;
 Node-76             	1767.0      	0.0         	                	;
 Node-77             	1768.0      	0.0         	                	;
 Node-78             	1768.0      	0.0         	                	;
 Node-79             	1768.0      	0.0         	                	;
 Node-81             	1802.0      	0.0         	                	;
 Node-82             	1802.0      	0.0         	                	;
 Node-83             	1803.0      	0.0         	                	;
 Node-697            	1803.0      	0.0         	                	;
 Node-86             	1804.0      	0.0         	                	;
 Node-87             	1806.0      	0.0         	                	;
 Node-88             	1809.0      	0.0         	                	;
 Node-89             	1811.0      	0.0         	                	;
 Node-90             	1812.0      	0.0         	                	;
 Node-91             	1814.0      	0.0         	                	;
 Node-92             	1814.0      	0.0         	                	;
 Node-93             	1815.0      	0.0         	                	;
 Node-94             	1816.0      	0.0         	                	;
 Node-95             	1815.0      	0.0         	                	;
 Node-96             	1817.0      	0.0         	                	;
 Node-97             	1819.0      	0.0         	                	;
 Node-98             	1820.0      	0.0         	                	;
 Node-99             	1819.0      	0.0         	                	;
 Node-100            	1820.0      	0.0         	                	;
 Node-101            	1820.0      	0.0         	                	;
 Node-102            	1820.0      	0.0         	                	;
 Node-103            	1820.0      	0.0         	                	;
 Node-702            	1820.0      	0.0         	                	;
 Node-602            	1820.0      	0.0         	                	;
 Node-142            	1814.0      	0.0         	                	;
 Node-107            	1814.0      	0.0         	                	;
 Node-637            	1830.0      	0.0         	                	;
 Node-109            	1830.0      	0.0         	                	;
 Node-110            	1828.0      	0.0         	                	;
 Node-111            	1828.0      	0.0         	                	;
 Node-112            	1828.0      	0.0         	                	;
 Node-113            	1827.0      	0.0         	                	;
 Node-114            	1825.0      	0.0         	                	;
 Node-115            	1825.0      	0.0         	                	;
 Node-116            	1823.0      	0.0         	                	;
 Node-117            	1823.0      	0.0         	                	;
 Node-118            	1821.0      	0.0         	                	;
 Node-119            	1821.0      	0.0         	                	;
 Node-120            	1819.0      	0.0         	                	;
 Node-121            	1819.0      	0.0         	                	;
 Node-122            	1818.0      	0.0         	                	;
 Node-123            	1818.0      	0.0         	                	;
 Node-124            	1816.0      	0.0         	                	;
 Node-125            	1815.0      	0.0         	                	;
 Node-126            	1813.0      	0.0         	                	;
 Node-127            	1813.0      	0.0         	                	;
 Node-128            	1813.0      	0.0         	                	;
 Node-129            	1812.0      	0.0         	                	;
 Node-130            	1813.0      	0.0         	                	;
 Node-131            	1813.0      	0.0         	                	;
 Node-132            	1812.0      	0.0         	                	;
 Node-600            	1813.0      	0.0         	                	;
 Node-134            	1813.0      	0.0         	                	;
 Node-135            	1813.0      	0.0         	                	;
 Node-136            	1813.0      	0.0         	                	;
 Node-137            	1813.0      	0.0         	                	;
 Node-138            	1813.0      	0.0         	                	;
 Node-139            	1814.0      	0.0         	                	;
 Node-140            	1814.0      	0.0         	                	;
 Node-141            	1814.0      	0.0         	                	;
 Node-249            	1808.0      	0.0         	                	;
 Node-144            	1810.0      	0.0         	                	;
 Node-145            	1810.0      	0.0         	                	;
 Node-146            	1812.0      	0.0         	                	;
 Node-147            	1813.0      	0.0         	                	;
 Node-148            	1813.0      	0.00462963  	                	;
 Node-252            	1806.0      	0.0         	                	;
 Node-150            	1805.0      	0.0         	                	;
 Node-151            	1805.0      	0.0         	                	;
 Node-152            	1804.0      	0.0         	                	;
 Node-154            	1804.0      	0.0         	                	;
 Node-155            	1803.0      	0.0         	                	;
 Node-638            	1802.0      	0.0         	                	;
 Node-192            	1852.0      	0.0         	                	;
 Node-160            	1852.0      	0.0         	                	;
 Node-161            	1855.0      	0.0         	                	;
 Node-162            	1855.0      	0.0         	                	;
 Node-163            	1855.0      	0.0         	                	;
 Node-164            	1854.0      	0.0         	                	;
 Node-165            	1852.0      	0.005555556 	                	;
 Node-230            	1824.0      	0.0         	                	;
 Node-167            	1824.0      	0.0         	                	;
 Node-168            	1824.0      	0.005555556 	                	;
 Node-240            	1815.0      	0.0         	                	;
 Node-170            	1815.0      	0.0         	                	;
 Node-171            	1818.0      	0.0         	                	;
 Node-172            	1819.0      	0.0         	                	;
 Node-173            	1819.0      	0.0         	                	;
 Node-174            	1819.0      	0.003703704 	                	;
 Node-335            	1850.0      	0.0         	                	;
 Node-176            	1849.0      	0.0         	                	;
 Node-177            	1848.0      	0.0         	                	;
 Node-178            	1848.0      	0.0         	                	;
 Node-180            	1862.0      	0.0         	                	;
 Node-181            	1860.0      	0.0         	                	;
 Node-182            	1859.0      	0.0         	                	;
 Node-183            	1859.0      	0.0         	                	;
 Node-184            	1859.0      	0.0         	                	;
 Node-186            	1862.0      	0.0         	                	;
 Node-187            	1860.0      	0.0         	                	;
 Node-188            	1859.0      	0.0         	                	;
 Node-189            	1859.0      	0.0         	                	;
 Node-190            	1857.0      	0.0         	                	;
 Node-191            	1855.0      	0.0         	                	;
 Node-193            	1852.0      	0.0         	                	;
 Node-194            	1852.0      	0.0         	                	;
 Node-195            	1849.0      	0.0         	                	;
 Node-196            	1849.0      	0.0         	                	;
 Node-197            	1846.0      	0.0         	                	;
 Node-198            	1846.0      	0.0         	                	;
 Node-199            	1843.0      	0.0         	                	;
 Node-200            	1844.0      	0.0         	                	;
 Node-201            	1841.0      	0.0         	                	;
 Node-202            	1839.0      	0.0         	                	;
 Node-203            	1839.0      	0.0         	                	;
 Node-204            	1838.0      	0.0         	                	;
 Node-205            	1838.0      	0.0         	                	;
 Node-206            	1838.0      	0.0         	                	;
 Node-207            	1838.0      	0.0         	                	;
 Node-208            	1836.0      	0.0         	                	;
 Node-209            	1836.0      	0.0         	                	;
 Node-210            	1836.0      	0.0         	                	;
 Node-211            	1835.0      	0.0         	                	;
 Node-212            	1834.0      	0.0         	                	;
 Node-213            	1834.0      	0.0         	                	;
 Node-214            	1834.0      	0.0         	                	;
 Node-215            	1835.0      	0.0         	                	;
 Node-216            	1835.0      	0.0         	                	;
 Node-217            	1834.0      	0.0         	                	;
 Node-218            	1834.0      	0.0         	                	;
 Node-219            	1831.0      	0.0         	                	;
 Node-220            	1831.0      	0.0         	                	;
 Node-221            	1832.0      	0.0         	                	;
 Node-222            	1829.0      	0.0         	                	;
 Node-223            	1829.0      	0.0         	                	;
 Node-224            	1829.0      	0.0         	                	;
 Node-225            	1829.0      	0.0         	                	;
 Node-226            	1827.0      	0.0         	                	;
 Node-227            	1827.0      	0.0         	                	;
 Node-228            	1824.0      	0.0         	                	;
 Node-229            	1824.0      	0.0         	                	;
 Node-231            	1824.0      	0.0         	                	;
 Node-232            	1823.0      	0.0         	                	;
 Node-233            	1822.0      	0.0         	                	;
 Node-234            	1821.0      	0.0         	                	;
 Node-235            	1820.0      	0.0         	                	;
 Node-236            	1818.0      	0.0         	                	;
 Node-237            	1819.0      	0.0         	                	;
 Node-238            	1817.0      	0.0         	                	;
 Node-239            	1815.0      	0.0         	                	;
 Node-241            	1816.0      	0.0         	                	;
 Node-242            	1814.0      	0.0         	                	;
 Node-243            	1814.0      	0.0         	                	;
 Node-244            	1812.0      	0.0         	                	;
 Node-245            	1812.0      	0.0         	                	;
 Node-246            	1810.0      	0.0         	                	;
 Node-283            	1810.0      	0.0         	                	;
 Node-248            	1810.0      	0.0         	                	;
 Node-250            	1808.0      	0.0         	                	;
 Node-251            	1806.0      	0.0         	                	;
 Node-330            	1849.0      	0.0         	                	;
 Node-254            	1849.0      	0.0         	                	;
 Node-255            	1849.0      	0.0         	                	;
 Node-256            	1850.0      	0.0         	                	;
 Node-257            	1850.0      	0.002777778 	                	;
 Node-332            	1849.0      	0.0         	                	;
 Node-259            	1850.0      	0.0         	                	;
 Node-260            	1850.0      	0.0         	                	;
 Node-261            	1850.0      	0.0         	                	;
 Node-262            	1850.0      	0.0         	                	;
 Node-263            	1848.0      	0.008333333 	                	;
 Node-313            	1849.0      	0.0         	                	;
 Node-265            	1849.0      	0.0         	                	;
 Node-266            	1850.0      	0.0         	                	;
 Node-267            	1850.0      	0.0         	                	;
 Node-268            	1853.0      	0.0         	                	;
 Node-271            	1855.0      	0.0         	                	;
 Node-270            	1855.0      	0.0         	                	;
 Node-272            	1854.0      	0.0         	                	;
 Node-273            	1855.0      	0.0         	                	;
 Node-274            	1855.0      	0.0         	                	;
 Node-275            	1855.0      	0.002777778 	                	;
 Node-316            	1849.0      	0.0         	                	;
 Node-277            	1847.0      	0.0         	                	;
 Node-278            	1847.0      	0.0         	                	;
 Node-279            	1847.0      	0.002777778 	                	;
 Node-302            	1849.0      	0.0         	                	;
 Node-281            	1849.0      	0.0         	                	;
 Node-282            	1848.0      	0.002777778 	                	;
 Node-284            	1810.0      	0.005555556 	                	;
 Node-529            	1849.0      	0.0         	                	;
 Node-286            	1849.0      	0.0         	                	;
 Node-287            	1849.0      	0.0         	                	;
 Node-387            	1849.0      	0.0         	                	;
 Node-289            	1850.0      	0.0         	                	;
 Node-291            	1850.0      	0.0         	                	;
 Node-292            	1849.0      	0.0         	                	;
 Node-293            	1849.0      	0.0         	                	;
 Node-294            	1849.0      	0.0         	                	;
 Node-370            	1850.0      	0.0         	                	;
 Node-296            	1849.0      	0.0         	                	;
 Node-297            	1849.0      	0.0         	                	;
 Node-298            	1850.0      	0.0         	                	;
 Node-374            	1850.0      	0.0         	                	;
 Node-300            	1849.0      	0.0         	                	;
 Node-301            	1850.0      	0.0         	                	;
 Node-303            	1849.0      	0.0         	                	;
 Node-304            	1849.0      	0.0         	                	;
 Node-349            	1850.0      	0.0         	                	;
 Node-306            	1849.0      	0.0         	                	;
 Node-354            	1850.0      	0.0         	                	;
 Node-308            	1849.0      	0.0         	                	;
 Node-309            	1849.0      	0.0         	                	;
 Node-310            	1849.0      	0.0         	                	;
 Node-311            	1849.0      	0.0         	                	;
 Node-312            	1849.0      	0.0         	                	;
 Node-314            	1849.0      	0.0         	                	;
 Node-317            	1848.0      	0.0         	                	;
 Node-318            	1847.0      	0.0         	                	;
 Node-319            	1848.0      	0.0         	                	;
 Node-320            	1848.0      	0.0         	                	;
 Node-321            	1848.0      	0.0         	                	;
 Node-322            	1848.0      	0.0         	                	;
 Node-324            	1849.0      	0.0         	                	;
 Node-325            	1850.0      	0.0         	                	;
 Node-326            	1850.0      	0.0         	                	;
 Node-327            	1850.0      	0.0         	                	;
 Node-328            	1850.0      	0.0         	                	;
 Node-331            	1849.0      	0.0         	                	;
 Node-333            	1850.0      	0.0         	                	;
 Node-334            	1850.0      	0.0         	                	;
 Node-336            	1850.0      	0.0         	                	;
 Node-338            	1851.0      	0.0         	                	;
 Node-339            	1852.0      	0.0         	                	;
 Node-340            	1853.0      	0.0         	                	;
 Node-341            	1853.0      	0.0         	                	;
 Node-342            	1857.0      	0.0         	                	;
 Node-343            	1857.0      	0.0         	                	;
 Node-344            	1857.0      	0.0         	                	;
 Node-345            	1858.0      	0.0         	                	;
 Node-346            	1859.0      	0.0         	                	;
 Node-347            	1860.0      	0.0         	                	;
 Node-350            	1850.0      	0.0         	                	;
 Node-351            	1851.0      	0.0         	                	;
 Node-352            	1853.0      	0.0         	                	;
 Node-353            	1853.0      	0.005555556 	                	;
 Node-355            	1848.0      	0.0         	                	;
 Node-356            	1846.0      	0.0         	                	;
 Node-357            	1844.0      	0.0         	                	;
 Node-358            	1844.0      	0.0         	                	;
 Node-359            	1844.0      	0.007407407 	                	;
 Node-399            	1856.0      	0.0         	                	;
 Node-361            	1856.0      	0.0         	                	;
 Node-362            	1856.0      	0.0         	                	;
 Node-363            	1855.0      	0.0         	                	;
 Node-364            	1854.0      	0.0         	                	;
 Node-365            	1853.0      	0.0         	                	;
 Node-366            	1852.0      	0.0         	                	;
 Node-367            	1852.0      	0.0         	                	;
 Node-368            	1850.0      	0.0         	                	;
 Node-369            	1852.0      	0.012962963 	                	;
 Node-371            	1852.0      	0.0         	                	;
 Node-372            	1852.0      	0.0         	                	;
 Node-373            	1854.0      	0.002777778 	                	;
 Node-375            	1848.0      	0.0         	                	;
 Node-376            	1848.0      	0.005555556 	                	;
 Node-526            	1847.0      	0.0         	                	;
 Node-378            	1848.0      	0.0         	                	;
 Node-379            	1848.0      	0.0         	                	;
 Node-380            	1847.0      	0.0         	                	;
 Node-381            	1847.0      	0.0         	                	;
 Node-382            	1846.0      	0.0         	                	;
 Node-383            	1846.0      	0.0         	                	;
 Node-384            	1846.0      	0.002777778 	                	;
 Node-388            	1850.0      	0.0         	                	;
 Node-389            	1851.0      	0.0         	                	;
 Node-390            	1852.0      	0.0         	                	;
 Node-391            	1853.0      	0.0         	                	;
 Node-392            	1853.0      	0.0         	                	;
 Node-393            	1853.0      	0.0         	                	;
 Node-394            	1854.0      	0.0         	                	;
 Node-395            	1855.0      	0.0         	                	;
 Node-396            	1855.0      	0.0         	                	;
 Node-397            	1856.0      	0.0         	                	;
 Node-398            	1856.0      	0.0         	                	;
 Node-400            	1856.0      	0.003703704 	                	;
 Node-590            	1887.0      	0.0         	                	;
 Node-402            	1888.0      	0.0         	                	;
 Node-403            	1888.0      	0.0         	                	;
 Node-404            	1888.0      	0.0         	                	;
 Node-405            	1889.0      	0.0         	                	;
 Node-406            	1880.0      	0.0         	                	;
 Node-407            	1881.0      	0.0         	                	;
 Node-408            	1887.0      	0.0         	                	;
 Node-409            	1885.0      	0.0         	                	;
 Node-410            	1886.0      	0.0         	                	;
 Node-411            	1888.0      	0.0         	                	;
 Node-412            	1890.0      	0.0         	                	;
 Node-413            	1887.0      	0.0         	                	;
 Node-414            	1887.0      	0.0         	                	;
 Node-415            	1891.0      	0.0         	                	;
 Node-416            	1886.0      	0.0         	                	;
 Node-417            	1889.0      	0.0         	                	;
 Node-418            	1884.0      	0.0         	                	;
 Node-419            	1885.0      	0.0         	                	;
 Node-420            	1887.0      	0.0         	                	;
 Node-421            	1888.0      	0.0         	                	;
 Node-422            	1884.0      	0.0         	                	;
 Node-423            	1881.0      	0.0         	                	;
 Node-424            	1876.0      	0.0         	                	;
 Node-425            	1877.0      	0.0         	                	;
 Node-426            	1878.0      	0.0         	                	;
 Node-427            	1875.0      	0.0         	                	;
 Node-428            	1873.0      	0.0         	                	;
 Node-429            	1871.0      	0.0         	                	;
 Node-430            	1870.0      	0.0         	                	;
 Node-431            	1872.0      	0.0         	                	;
 Node-432            	1869.0      	0.0         	                	;
 Node-433            	1868.0      	0.0         	                	;
 Node-434            	1867.0      	0.0         	                	;
 Node-435            	1868.0      	0.0         	                	;
 Node-436            	1866.0      	0.0         	                	;
 Node-437            	1865.0      	0.0         	                	;
 Node-438            	1865.0      	0.0         	                	;
 Node-439            	1862.0      	0.0         	                	;
 Node-440            	1863.0      	0.0         	                	;
 Node-441            	1861.0      	0.0         	                	;
 Node-442            	1858.0      	0.0         	                	;
 Node-443            	1860.0      	0.0         	                	;
 Node-444            	1858.0      	0.0         	                	;
 Node-445            	1856.0      	0.0         	                	;
 Node-446            	1854.0      	0.0         	                	;
 Node-447            	1856.0      	0.0         	                	;
 Node-448            	1854.0      	0.0         	                	;
 Node-449            	1852.0      	0.0         	                	;
 Node-450            	1851.0      	0.0         	                	;
 Node-451            	1845.0      	0.0         	                	;
 Node-452            	1845.0      	0.0         	                	;
 Node-453            	1844.0      	0.0         	                	;
 Node-454            	1844.0      	0.0         	                	;
 Node-455            	1843.0      	0.0         	                	;
 Node-456            	1839.0      	0.0         	                	;
 Node-457            	1839.0      	0.0         	                	;
 Node-458            	1839.0      	0.0         	                	;
 Node-459            	1839.0      	0.0         	                	;
 Node-460            	1835.0      	0.0         	                	;
 Node-461            	1832.0      	0.0         	                	;
 Node-462            	1834.0      	0.0         	                	;
 Node-463            	1835.0      	0.0         	                	;
 Node-464            	1834.0      	0.0         	                	;
 Node-465            	1832.0      	0.0         	                	;
 Node-466            	1833.0      	0.0         	                	;
 Node-467            	1831.0      	0.0         	                	;
 Node-468            	1832.0      	0.0         	                	;
 Node-469            	1830.0      	0.0         	                	;
 Node-470            	1828.0      	0.0         	                	;
 Node-471            	1825.0      	0.0         	                	;
 Node-472            	1823.0      	0.0         	                	;
 Node-473            	1821.0      	0.0         	                	;
 Node-474            	1821.0      	0.0         	                	;
 Node-498            	1821.0      	0.0         	                	;
 Node-477            	1821.0      	0.0         	                	;
 Node-478            	1819.0      	0.0         	                	;
 Node-479            	1818.0      	0.0         	                	;
 Node-480            	1818.0      	0.0         	                	;
 Node-481            	1816.0      	0.0         	                	;
 Node-482            	1816.0      	0.0         	                	;