[TITLE]
20422 KamabangoII-Giseke WSS in Huye District

[JUNCTIONS]
;ID                  	Elev        	Demand      	Pattern         
 Node-145            	1696.0      	0.0         	                	;
 Node-2              	1696.0      	0.0         	                	;
 Node-3              	1696.0      	0.0         	                	;
 Node-4              	1696.0      	0.0         	                	;
 Node-5              	1695.0      	0.0         	                	;
 Node-6              	1697.0      	0.005555556 	                	;
 Node-436            	1686.0      	0.0         	                	;
 Node-8              	1682.0      	0.0         	                	;
 Node-9              	1681.0      	0.0         	                	;
 Node-10             	1680.0      	0.0         	                	;
 Node-379            	1679.0      	0.0         	                	;
 Node-12             	1679.0      	0.0         	                	;
 Node-213            	1693.0      	0.0         	                	;
 Node-14             	1692.0      	0.0         	                	;
 Node-15             	1691.0      	0.0         	                	;
 Node-16             	1691.0      	0.0         	                	;
 Node-17             	1690.0      	0.0         	                	;
 Node-18             	1690.0      	0.0         	                	;
 Node-19             	1689.0      	0.0         	                	;
 Node-20             	1690.0      	0.0         	                	;
 Node-21             	1689.0      	0.0         	                	;
 Node-75             	1676.0      	0.0         	                	;
 Node-23             	1676.0      	0.0         	                	;
 Node-82             	1676.0      	0.0         	                	;
 Node-936            	1714.0      	0.0         	                	;
 Node-26             	1713.0      	0.0         	                	;
 Node-27             	1712.0      	0.0         	                	;
 Node-838            	1695.0      	0.0         	                	;
 Node-29             	1695.0      	0.0         	                	;
 Node-30             	1697.0      	0.0         	                	;
 Node-31             	1698.0      	0.0         	                	;
 Node-32             	1698.0      	0.0         	                	;
 Node-33             	1699.0      	0.0         	                	;
 Node-34             	1698.0      	0.0         	                	;
 Node-35             	1698.0      	0.0         	                	;
 Node-36             	1698.0      	0.0         	                	;
 Node-836            	1695.0      	0.0         	                	;
 Node-38             	1695.0      	0.0         	                	;
 Node-39             	1693.0      	0.003703704 	                	;
 Node-586            	1708.0      	0.0         	                	;
 Node-42             	1708.0      	0.0         	                	;
 Node-43             	1707.0      	0.0         	                	;
 Node-618            	1692.0      	0.0         	                	;
 Node-45             	1692.0      	0.0         	                	;
 Node-46             	1694.0      	0.0         	                	;
 Node-47             	1694.0      	0.0         	                	;
 Node-48             	1694.0      	0.0         	                	;
 Node-49             	1694.0      	0.0         	                	;
 Node-50             	1695.0      	0.0         	                	;
 Node-51             	1694.0      	0.0         	                	;
 Node-52             	1695.0      	0.0         	                	;
 Node-53             	1694.0      	0.0         	                	;
 Node-397            	1671.0      	0.0         	                	;
 Node-55             	1671.0      	0.0         	                	;
 Node-56             	1670.0      	0.0         	                	;
 Node-57             	1670.0      	0.0         	                	;
 Node-58             	1670.0      	0.0         	                	;
 Node-442            	1681.0      	0.0         	                	;
 Node-60             	1681.0      	0.0         	                	;
 Node-61             	1681.0      	0.0         	                	;
 Node-62             	1682.0      	0.0         	                	;
 Node-63             	1681.0      	0.0         	                	;
 Node-64             	1681.0      	0.0         	                	;
 Node-65             	1681.0      	0.0         	                	;
 Node-66             	1681.0      	0.0         	                	;
 Node-67             	1679.0      	0.0         	                	;
 Node-68             	1679.0      	0.0         	                	;
 Node-69             	1677.0      	0.0         	                	;
 Node-70             	1677.0      	0.006481481 	                	;
 Node-452            	1676.0      	0.0         	                	;
 Node-72             	1676.0      	0.0         	                	;
 Node-73             	1676.0      	0.0         	                	;
 Node-74             	1676.0      	0.0         	                	;
 Node-79             	1676.0      	0.0         	                	;
 Node-351            	1702.0      	0.0         	                	;
 Node-78             	1702.0      	0.0         	                	;
 Node-80             	1674.0      	0.0         	                	;
 Node-81             	1674.0      	0.0         	                	;
 Node-83             	1676.0      	0.14537037  	                	;
 Node-85             	1709.0      	0.0         	                	;
 Node-86             	1708.0      	0.0         	                	;
 Node-87             	1707.0      	0.0         	                	;
 Node-88             	1706.0      	0.0         	                	;
 Node-89             	1706.0      	0.0         	                	;
 Node-90             	1705.0      	0.0         	                	;
 Node-91             	1704.0      	0.0         	                	;
 Node-92             	1703.0      	0.0         	                	;
 Node-93             	1702.0      	0.0         	                	;
 Node-94             	1702.0      	0.0         	                	;
 Node-95             	1699.0      	0.0         	                	;
 Node-96             	1697.0      	0.0         	                	;
 Node-97             	1697.0      	0.0         	                	;
 Node-98             	1696.0      	0.0         	                	;
 Node-99             	1696.0      	0.0         	                	;
 Node-100            	1694.0      	0.0         	                	;
 Node-101            	1695.0      	0.0         	                	;
 Node-102            	1694.0      	0.0         	                	;
 Node-103            	1695.0      	0.0         	                	;
 Node-104            	1696.0      	0.0         	                	;
 Node-105            	1694.0      	0.0         	                	;
 Node-106            	1695.0      	0.0         	                	;
 Node-107            	1694.0      	0.0         	                	;
 Node-108            	1695.0      	0.0         	                	;
 Node-109            	1695.0      	0.0         	                	;
 Node-110            	1695.0      	0.0         	                	;
 Node-111            	1695.0      	0.0         	                	;
 Node-112            	1694.0      	0.0         	                	;
 Node-113            	1694.0      	0.0         	                	;
 Node-114            	1694.0      	0.0         	                	;
 Node-115            	1695.0      	0.0         	                	;
 Node-116            	1693.0      	0.0         	                	;
 Node-117            	1695.0      	0.0         	                	;
 Node-118            	1693.0      	0.0         	                	;
 Node-119            	1693.0      	0.0         	                	;
 Node-120            	1695.0      	0.0         	                	;
 Node-121            	1693.0      	0.0         	                	;
 Node-122            	1695.0      	0.0         	                	;
 Node-123            	1695.0      	0.0         	                	;
 Node-124            	1694.0      	0.0         	                	;
 Node-125            	1696.0      	0.0         	                	;
 Node-126            	1693.0      	0.0         	                	;
 Node-813            	1695.0      	0.0         	                	;
 Node-932            	1717.0      	0.0         	                	;
 Node-129            	1716.0      	0.0         	                	;
 Node-130            	1716.0      	0.0         	                	;
 Node-131            	1715.0      	0.0         	                	;
 Node-132            	1714.0      	0.0         	                	;
 Node-133            	1712.0      	0.0         	                	;
 Node-134            	1711.0      	0.0         	                	;
 Node-135            	1710.0      	0.0         	                	;
 Node-136            	1709.0      	0.0         	                	;
 Node-137            	1708.0      	0.0         	                	;
 Node-138            	1706.0      	0.0         	                	;
 Node-139            	1706.0      	0.0         	                	;
 Node-140            	1702.0      	0.0         	                	;
 Node-141            	1700.0      	0.0         	                	;
 Node-142            	1700.0      	0.0         	                	;
 Node-143            	1699.0      	0.0         	                	;
 Node-144            	1696.0      	0.0         	                	;
 Node-146            	1695.0      	0.0         	                	;
 Node-147            	1693.0      	0.0         	                	;
 Node-148            	1693.0      	0.0         	                	;
 Node-149            	1691.0      	0.0         	                	;
 Node-150            	1691.0      	0.0         	                	;
 Node-151            	1689.0      	0.0         	                	;
 Node-152            	1686.0      	0.0         	                	;
 Node-153            	1685.0      	0.0         	                	;
 Node-154            	1683.0      	0.0         	                	;
 Node-155            	1683.0      	0.0         	                	;
 Node-156            	1680.0      	0.0         	                	;
 Node-157            	1679.0      	0.0         	                	;
 Node-158            	1677.0      	0.0         	                	;
 Node-159            	1677.0      	0.0         	                	;
 Node-160            	1676.0      	0.0         	                	;
 Node-161            	1674.0      	0.0         	                	;
 Node-162            	1674.0      	0.0         	                	;
 Node-163            	1670.0      	0.0         	                	;
 Node-164            	1666.0      	0.0         	                	;
 Node-165            	1664.0      	0.0         	                	;
 Node-166            	1661.0      	0.0         	                	;
 Node-167            	1658.0      	0.0         	                	;
 Node-168            	1658.0      	0.0         	                	;
 Node-169            	1655.0      	0.0         	                	;
 Node-170            	1653.0      	0.0         	                	;
 Node-171            	1651.0      	0.0         	                	;
 Node-172            	1651.0      	0.0         	                	;
 Node-173            	1651.0      	0.0         	                	;
 Node-174            	1650.0      	0.0         	                	;
 Node-175            	1648.0      	0.0         	                	;
 Node-176            	1647.0      	0.0         	                	;
 Node-178            	1647.0      	0.0         	                	;
 Node-179            	1646.0      	0.0         	                	;
 Node-180            	1645.0      	0.0         	                	;
 Node-181            	1645.0      	0.0         	                	;
 Node-182            	1645.0      	0.0         	                	;
 Node-183            	1645.0      	0.0         	                	;
 Node-184            	1645.0      	0.0         	                	;
 Node-185            	1645.0      	0.0         	                	;
 Node-186            	1646.0      	0.0         	                	;
 Node-187            	1646.0      	0.0         	                	;
 Node-188            	1647.0      	0.0         	                	;
 Node-189            	1649.0      	0.0         	                	;
 Node-190            	1650.0      	0.0         	                	;
 Node-191            	1651.0      	0.0         	                	;
 Node-192            	1651.0      	0.0         	                	;
 Node-193            	1658.0      	0.0         	                	;
 Node-194            	1662.0      	0.0         	                	;
 Node-195            	1665.0      	0.0         	                	;
 Node-196            	1665.0      	0.0         	                	;
 Node-197            	1669.0      	0.0         	                	;
 Node-198            	1672.0      	0.0         	                	;
 Node-199            	1673.0      	0.0         	                	;
 Node-200            	1676.0      	0.0         	                	;
 Node-201            	1676.0      	0.0         	                	;
 Node-202            	1679.0      	0.0         	                	;
 Node-203            	1680.0      	0.0         	                	;
 Node-204            	1682.0      	0.0         	                	;
 Node-205            	1684.0      	0.0         	                	;
 Node-206            	1684.0      	0.0         	                	;
 Node-207            	1685.0      	0.0         	                	;
 Node-208            	1687.0      	0.0         	                	;
 Node-209            	1688.0      	0.0         	                	;
 Node-210            	1688.0      	0.0         	                	;
 Node-211            	1690.0      	0.0         	                	;
 Node-212            	1691.0      	0.0         	                	;
 Node-214            	1693.0      	0.0         	                	;
 Node-215            	1694.0      	0.0         	                	;
 Node-216            	1695.0      	0.0         	                	;
 Node-891            	1696.0      	0.0         	                	;
 Node-219            	1713.0      	0.0         	                	;
 Node-220            	1713.0      	0.0         	                	;
 Node-221            	1711.0      	0.0         	                	;
 Node-222            	1710.0      	0.0         	                	;
 Node-223            	1710.0      	0.0         	                	;
 Node-225            	1713.0      	0.0         	                	;
 Node-226            	1710.0      	0.0         	                	;
 Node-261            	1710.0      	0.0         	                	;
 Node-228            	1709.0      	0.0         	                	;
 Node-229            	1708.0      	0.0         	                	;
 Node-230            	1707.0      	0.0         	                	;
 Node-231            	1706.0      	0.0         	                	;
 Node-232            	1705.0      	0.0         	                	;
 Node-233            	1704.0      	0.0         	                	;
 Node-234            	1702.0      	0.0         	                	;
 Node-235            	1701.0      	0.0         	                	;
 Node-236            	1700.0      	0.0         	                	;
 Node-237            	1697.0      	0.0         	                	;
 Node-238            	1695.0      	0.0         	                	;
 Node-239            	1694.0      	0.0         	                	;
 Node-240            	1691.0      	0.0         	                	;
 Node-241            	1691.0      	0.0         	                	;
 Node-242            	1689.0      	0.0         	                	;
 Node-243            	1689.0      	0.0         	                	;
 Node-244            	1687.0      	0.0         	                	;
 Node-245            	1686.0      	0.0         	                	;
 Node-246            	1684.0      	0.0         	                	;
 Node-247            	1684.0      	0.0         	                	;
 Node-248            	1684.0      	0.0         	                	;
 Node-249            	1682.0      	0.0         	                	;
 Node-250            	1680.0      	0.0         	                	;
 Node-251            	1679.0      	0.0         	                	;
 Node-252            	1678.0      	0.0         	                	;
 Node-253            	1676.0      	0.0         	                	;
 Node-254            	1674.0      	0.0         	                	;
 Node-255            	1672.0      	0.0         	                	;
 Node-256            	1670.0      	0.0         	                	;
 Node-257            	1668.0      	0.0         	                	;
 Node-258            	1668.0      	0.0         	                	;
 Node-264            	1668.0      	0.0         	                	;
 Node-260            	1668.0      	0.0         	                	;
 Node-262            	1710.0      	0.0         	                	;
 Node-263            	1710.0      	0.00462963  	                	;
 Node-265            	1668.0      	0.0         	                	;
 Node-266            	1668.0      	0.0         	                	;
 Node-267            	1667.0      	0.0         	                	;
 Node-268            	1665.0      	0.0         	                	;
 Node-269            	1665.0      	0.0         	                	;
 Node-270            	1664.0      	0.0         	                	;
 Node-271            	1663.0      	0.0         	                	;
 Node-272            	1662.0      	0.0         	                	;
 Node-273            	1660.0      	0.0         	                	;
 Node-274            	1659.0      	0.0         	                	;
 Node-275            	1660.0      	0.006481481 	                	;
 Node-277            	1720.0      	0.0         	                	;
 Node-278            	1719.0      	0.0         	                	;
 Node-279            	1718.0      	0.0         	                	;
 Node-280            	1718.0      	0.0         	                	;
 Node-281            	1718.0      	0.0         	                	;
 Node-282            	1717.0      	0.0         	                	;
 Node-283            	1715.0      	0.0         	                	;
 Node-284            	1713.0      	0.0         	                	;
 Node-285            	1710.0      	0.0         	                	;
 Node-361            	1708.0      	0.0         	                	;
 Node-287            	1708.0      	0.0         	                	;
 Node-288            	1709.0      	0.0         	                	;
 Node-289            	1711.0      	0.0         	                	;
 Node-290            	1711.0      	0.003703704 	                	;
 Node-687            	1789.0      	0.0         	                	;
 Node-292            	1785.0      	0.0         	                	;
 Node-293            	1786.0      	0.0         	                	;
 Node-294            	1783.0      	0.0         	                	;
 Node-295            	1783.0      	0.0         	                	;
 Node-296            	1785.0      	0.0         	                	;
 Node-297            	1789.0      	0.0         	                	;
 Node-298            	1789.0      	0.0         	                	;
 Node-299            	1778.0      	0.0         	                	;
 Node-300            	1780.0      	0.0         	                	;
 Node-301            	1779.0      	0.0         	                	;
 Node-302            	1778.0      	0.0         	                	;
 Node-303            	1777.0      	0.0         	                	;
 Node-304            	1777.0      	0.0         	                	;
 Node-305            	1774.0      	0.0         	                	;
 Node-306            	1775.0      	0.0         	                	;
 Node-307            	1772.0      	0.0         	                	;
 Node-308            	1769.0      	0.0         	                	;
 Node-309            	1770.0      	0.0         	                	;
 Node-310            	1766.0      	0.0         	                	;
 Node-311            	1768.0      	0.0         	                	;
 Node-312            	1765.0      	0.0         	                	;
 Node-313            	1765.0      	0.0         	                	;
 Node-715            	1765.0      	0.0         	                	;
 Node-544            	1665.0      	0.0         	                	;
 Node-316            	1665.0      	0.0         	                	;
 Node-317            	1667.0      	0.0         	                	;
 Node-318            	1667.0      	0.0         	                	;
 Node-319            	1670.0      	0.0         	                	;
 Node-320            	1673.0      	0.0         	                	;
 Node-321            	1673.0      	0.0         	                	;
 Node-322            	1677.0      	0.0         	                	;
 Node-323            	1679.0      	0.0         	                	;
 Node-324            	1682.0      	0.0         	                	;
 Node-325            	1684.0      	0.0         	                	;
 Node-326            	1687.0      	0.0         	                	;
 Node-327            	1687.0      	0.0         	                	;
 Node-328            	1688.0      	0.0         	                	;
 Node-329            	1692.0      	0.0         	                	;
 Node-330            	1692.0      	0.0         	                	;
 Node-331            	1695.0      	0.0         	                	;
 Node-332            	1695.0      	0.0         	                	;
 Node-333            	1697.0      	0.0         	                	;
 Node-334            	1699.0      	0.0         	                	;
 Node-335            	1700.0      	0.0         	                	;
 Node-336            	1700.0      	0.0         	                	;
 Node-337            	1700.0      	0.0         	                	;
 Node-338            	1701.0      	0.0         	                	;
 Node-339            	1700.0      	0.0         	                	;
 Node-340            	1700.0      	0.0         	                	;
 Node-341            	1702.0      	0.0         	                	;
 Node-342            	1701.0      	0.0         	                	;
 Node-343            	1700.0      	0.0         	                	;
 Node-344            	1701.0      	0.0         	                	;
 Node-345            	1701.0      	0.0         	                	;
 Node-346            	1700.0      	0.0         	                	;
 Node-347            	1699.0      	0.0         	                	;
 Node-348            	1699.0      	0.0         	                	;
 Node-349            	1700.0      	0.0         	                	;
 Node-352            	1702.0      	0.0         	                	;
 Node-353            	1701.0      	0.0         	                	;
 Node-354            	1701.0      	0.0         	                	;
 Node-355            	1701.0      	0.0         	                	;
 Node-356            	1701.0      	0.0         	                	;
 Node-357            	1703.0      	0.0         	                	;
 Node-358            	1704.0      	0.0         	                	;
 Node-359            	1705.0      	0.0         	                	;
 Node-360            	1706.0      	0.0         	                	;
 Node-362            	1706.0      	0.0         	                	;
 Node-363            	1707.0      	0.0         	                	;
 Node-364            	1707.0      	0.0         	                	;
 Node-365            	1709.0      	0.0         	                	;
 Node-366            	1709.0      	0.0         	                	;
 Node-367            	1712.0      	0.0         	                	;
 Node-368            	1710.0      	0.0         	                	;
 Node-369            	1710.0      	0.0         	                	;
 Node-370            	1711.0      	0.0         	                	;
 Node-371            	1711.0      	0.0         	                	;
 Node-372            	1712.0      	0.0         	                	;
 Node-373            	1715.0      	0.0         	                	;
 Node-374            	1716.0      	0.0         	                	;
 Node-375            	1717.0      	0.0         	                	;
 Node-376            	1718.0      	0.0         	                	;
 Node-377            	1719.0      	0.0         	                	;
 Node-380            	1680.0      	0.0         	                	;
 Node-381            	1679.0      	0.0         	                	;
 Node-391            	1698.0      	0.0         	                	;
 Node-383            	1698.0      	0.0         	                	;
 Node-598            	1702.0      	0.0         	                	;
 Node-385            	1701.0      	0.0         	                	;
 Node-386            	1700.0      	0.0         	                	;
 Node-387            	1699.0      	0.0         	                	;
 Node-388            	1699.0      	0.0         	                	;
 Node-389            	1699.0      	0.0         	                	;
 Node-390            	1698.0      	0.0         	                	;
 Node-393            	1675.0      	0.0         	                	;
 Node-394            	1674.0      	0.0         	                	;
 Node-395            	1673.0      	0.0         	                	;
 Node-396            	1672.0      	0.0         	                	;
 Node-398            	1672.0      	0.0         	                	;
 Node-399            	1673.0      	0.0         	                	;
 Node-401            	1673.0      	0.0         	                	;
 Node-402            	1673.0      	0.0         	                	;
 Node-403            	1673.0      	0.0         	                	;
 Node-404            	1672.0      	0.0         	                	;
 Node-405            	1672.0      	0.0         	                	;
 Node-407            	1692.0      	0.0         	                	;
 Node-408            	1692.0      	0.0         	                	;
 Node-409            	1692.0      	0.0         	                	;
 Node-410            	1691.0      	0.0         	                	;
 Node-411            	1692.0      	0.0         	                	;
 Node-412            	1690.0      	0.0         	                	;
 Node-413            	1689.0      	0.0         	                	;
 Node-414            	1690.0      	0.0         	                	;
 Node-415            	1688.0      	0.0         	                	;
 Node-416            	1689.0      	0.0         	                	;
 Node-417            	1688.0      	0.0         	                	;
 Node-418            	1688.0      	0.0         	                	;
 Node-428            	1688.0      	0.0         	                	;
 Node-421            	1689.0      	0.0         	                	;
 Node-422            	1689.0      	0.0         	                	;
 Node-423            	1689.0      	0.0         	                	;
 Node-424            	1689.0      	0.0         	                	;
 Node-425            	1688.0      	0.0         	                	;
 Node-426            	1688.0      	0.0         	                	;
 Node-427            	1687.0      	0.0         	                	;
 Node-429            	1687.0      	0.0         	                	;
 Node-430            	1686.0      	0.0         	                	;
 Node-431            	1686.0      	0.0         	                	;
 Node-432            	1686.0      	0.0         	                	;
 Node-433            	1686.0      	0.0         	                	;
 Node-434            	1684.0      	0.0         	                	;
 Node-435            	1685.0      	0.0         	                	;
 Node-437            	1684.0      	0.0         	                	;
 Node-438            	1683.0      	0.0         	                	;
 Node-439            	1683.0      	0.0         	                	;
 Node-440            	1682.0      	0.0         	                	;
 Node-441            	1683.0      	0.0         	                	;
 Node-443            	1680.0      	0.0         	                	;
 Node-444            	1680.0      	0.0         	                	;
 Node-445            	1680.0      	0.0         	                	;
 Node-446            	1678.0      	0.0         	                	;
 Node-447            	1678.0      	0.0         	                	;
 Node-448            	1677.0      	0.0         	                	;
 Node-449            	1677.0      	0.0         	                	;
 Node-450            	1676.0      	0.0         	                	;
 Node-451            	1676.0      	0.0         	                	;
 Node-685            	1736.0      	0.0         	                	;
 Node-454            	1736.0      	0.0         	                	;
 Node-455            	1738.0      	0.0         	                	;
 Node-456            	1737.0      	0.0         	                	;
 Node-457            	1736.0      	0.0         	                	;
 Node-458            	1734.0      	0.0         	                	;
 Node-459            	1734.0      	0.0         	                	;
 Node-460            	1733.0      	0.0         	                	;
 Node-461            	1733.0      	0.0         	                	;
 Node-462            	1733.0      	0.0         	                	;
 Node-463            	1733.0      	0.0         	                	;
 Node-464            	1733.0      	0.0         	                	;
 Node-465            	1733.0      	0.0         	                	;
 Node-466            	1731.0      	0.0         	                	;
 Node-467            	1730.0      	0.0         	                	;
 Node-468            	1729.0      	0.0         	                	;
 Node-469            	1730.0      	0.0         	                	;
 Node-470            	1729.0      	0.0         	                	;
 Node-471            	1729.0      	0.0         	                	;
 Node-472            	1728.0      	0.0         	                	;
 Node-473            	1727.0      	0.0         	                	;