[TITLE]
20421 KamabangoI WSS in Huye District

[JUNCTIONS]
;ID                  	Elev        	Demand      	Pattern         
 Node-429            	1729.0      	0.0         	                	;
 Node-2              	1729.0      	0.0         	                	;
 Node-3              	1729.0      	0.0         	                	;
 Node-4              	1729.0      	0.005555556 	                	;
 Node-212            	1747.0      	0.0         	                	;
 Node-6              	1746.0      	0.0         	                	;
 Node-7              	1746.0      	0.0         	                	;
 Node-8              	1742.0      	0.0         	                	;
 Node-9              	1740.0      	0.0         	                	;
 Node-10             	1736.0      	0.007407407 	                	;
 Node-351            	1758.0      	0.0         	                	;
 Node-12             	1758.0      	0.0         	                	;
 Node-13             	1758.0      	0.0         	                	;
 Node-14             	1756.0      	0.0         	                	;
 Node-401            	1756.0      	0.0         	                	;
 Node-16             	1756.0      	0.002777778 	                	;
 Node-415            	1740.0      	0.0         	                	;
 Node-18             	1740.0      	0.0         	                	;
 Node-19             	1740.0      	0.0         	                	;
 Node-20             	1740.0      	0.0         	                	;
 Node-21             	1739.0      	0.0         	                	;
 Node-22             	1740.0      	0.0         	                	;
 Node-23             	1740.0      	0.0         	                	;
 Node-193            	1740.0      	0.0         	                	;
 Node-25             	1740.0      	0.0         	                	;
 Node-27             	1757.0      	0.0         	                	;
 Node-28             	1757.0      	0.0         	                	;
 Node-29             	1755.0      	0.0         	                	;
 Node-30             	1754.0      	0.0         	                	;
 Node-31             	1753.0      	0.0         	                	;
 Node-32             	1753.0      	0.0         	                	;
 Node-33             	1752.0      	0.0         	                	;
 Node-34             	1751.0      	0.0         	                	;
 Node-35             	1750.0      	0.0         	                	;
 Node-36             	1749.0      	0.0         	                	;
 Node-37             	1748.0      	0.0         	                	;
 Node-38             	1748.0      	0.0         	                	;
 Node-39             	1747.0      	0.0         	                	;
 Node-40             	1745.0      	0.0         	                	;
 Node-41             	1745.0      	0.0         	                	;
 Node-42             	1743.0      	0.0         	                	;
 Node-43             	1742.0      	0.0         	                	;
 Node-44             	1740.0      	0.0         	                	;
 Node-45             	1739.0      	0.0         	                	;
 Node-46             	1738.0      	0.0         	                	;
 Node-47             	1734.0      	0.0         	                	;
 Node-48             	1733.0      	0.0         	                	;
 Node-49             	1733.0      	0.0         	                	;
 Node-50             	1730.0      	0.0         	                	;
 Node-51             	1729.0      	0.0         	                	;
 Node-52             	1727.0      	0.0         	                	;
 Node-53             	1725.0      	0.0         	                	;
 Node-54             	1724.0      	0.0         	                	;
 Node-55             	1723.0      	0.0         	                	;
 Node-56             	1723.0      	0.0         	                	;
 Node-57             	1722.0      	0.0         	                	;
 Node-58             	1721.0      	0.0         	                	;
 Node-59             	1719.0      	0.0         	                	;
 Node-60             	1718.0      	0.0         	                	;
 Node-61             	1717.0      	0.0         	                	;
 Node-62             	1717.0      	0.0         	                	;
 Node-63             	1716.0      	0.0         	                	;
 Node-64             	1714.0      	0.0         	                	;
 Node-67             	1713.0      	0.0         	                	;
 Node-66             	1713.0      	0.0         	                	;
 Node-68             	1714.0      	0.0         	                	;
 Node-69             	1710.0      	0.0         	                	;
 Node-70             	1709.0      	0.0         	                	;
 Node-71             	1709.0      	0.0         	                	;
 Node-72             	1704.0      	0.0         	                	;
 Node-73             	1703.0      	0.0         	                	;
 Node-74             	1701.0      	0.0         	                	;
 Node-87             	1699.0      	0.0         	                	;
 Node-76             	1697.0      	0.0         	                	;
 Node-77             	1695.0      	0.0         	                	;
 Node-78             	1692.0      	0.0         	                	;
 Node-79             	1691.0      	0.0         	                	;
 Node-80             	1689.0      	0.0         	                	;
 Node-81             	1687.0      	0.0         	                	;
 Node-404            	1754.0      	0.0         	                	;
 Node-83             	1753.0      	0.0         	                	;
 Node-84             	1754.0      	0.0         	                	;
 Node-85             	1753.0      	0.0         	                	;
 Node-86             	1753.0      	0.003703704 	                	;
 Node-88             	1699.0      	0.0         	                	;
 Node-89             	1696.0      	0.0         	                	;
 Node-90             	1696.0      	0.0         	                	;
 Node-91             	1694.0      	0.0         	                	;
 Node-92             	1692.0      	0.0         	                	;
 Node-93             	1691.0      	0.0         	                	;
 Node-94             	1690.0      	0.0         	                	;
 Node-95             	1687.0      	0.0         	                	;
 Node-96             	1687.0      	0.0         	                	;
 Node-97             	1684.0      	0.0         	                	;
 Node-98             	1681.0      	0.0         	                	;
 Node-99             	1679.0      	0.0         	                	;
 Node-100            	1675.0      	0.0         	                	;
 Node-101            	1672.0      	0.0         	                	;
 Node-102            	1670.0      	0.0         	                	;
 Node-103            	1668.0      	0.0         	                	;
 Node-104            	1665.0      	0.0         	                	;
 Node-105            	1662.0      	0.0         	                	;
 Node-106            	1661.0      	0.0         	                	;
 Node-107            	1658.0      	0.0         	                	;
 Node-108            	1657.0      	0.0         	                	;
 Node-109            	1656.0      	0.0         	                	;
 Node-110            	1654.0      	0.0         	                	;
 Node-349            	1729.0      	0.0         	                	;
 Node-112            	1729.0      	0.0         	                	;
 Node-113            	1729.0      	0.0         	                	;
 Node-114            	1729.0      	0.0         	                	;
 Node-115            	1729.0      	0.0         	                	;
 Node-116            	1730.0      	0.0         	                	;
 Node-117            	1731.0      	0.0         	                	;
 Node-118            	1732.0      	0.0         	                	;
 Node-119            	1733.0      	0.0         	                	;
 Node-120            	1734.0      	0.0         	                	;
 Node-121            	1735.0      	0.0         	                	;
 Node-122            	1737.0      	0.0         	                	;
 Node-123            	1738.0      	0.0         	                	;
 Node-124            	1739.0      	0.0         	                	;
 Node-125            	1740.0      	0.0         	                	;
 Node-126            	1740.0      	0.0         	                	;
 Node-127            	1740.0      	0.0         	                	;
 Node-128            	1744.0      	0.0         	                	;
 Node-129            	1745.0      	0.0         	                	;
 Node-130            	1746.0      	0.0         	                	;
 Node-131            	1746.0      	0.0         	                	;
 Node-132            	1748.0      	0.0         	                	;
 Node-133            	1750.0      	0.0         	                	;
 Node-134            	1750.0      	0.0         	                	;
 Node-135            	1751.0      	0.0         	                	;
 Node-136            	1753.0      	0.0         	                	;
 Node-137            	1754.0      	0.0         	                	;
 Node-138            	1754.0      	0.0         	                	;
 Node-139            	1755.0      	0.0         	                	;
 Node-140            	1755.0      	0.0         	                	;
 Node-141            	1756.0      	0.0         	                	;
 Node-142            	1755.0      	0.0         	                	;
 Node-143            	1757.0      	0.0         	                	;
 Node-144            	1757.0      	0.0         	                	;
 Node-145            	1758.0      	0.0         	                	;
 Node-146            	1758.0      	0.0         	                	;
 Node-149            	1759.0      	0.0         	                	;
 Node-150            	1760.0      	0.0         	                	;
 Node-151            	1760.0      	0.0         	                	;
 Node-152            	1760.0      	0.0         	                	;
 Node-153            	1760.0      	0.0         	                	;
 Node-154            	1759.0      	0.0         	                	;
 Node-155            	1759.0      	0.0         	                	;
 Node-156            	1757.0      	0.0         	                	;
 Node-157            	1757.0      	0.0         	                	;
 Node-158            	1755.0      	0.0         	                	;
 Node-159            	1754.0      	0.0         	                	;
 Node-160            	1752.0      	0.0         	                	;
 Node-161            	1752.0      	0.0         	                	;
 Node-162            	1751.0      	0.0         	                	;
 Node-163            	1749.0      	0.0         	                	;
 Node-164            	1749.0      	0.0         	                	;
 Node-165            	1748.0      	0.0         	                	;
 Node-166            	1748.0      	0.0         	                	;
 Node-167            	1747.0      	0.0         	                	;
 Node-168            	1747.0      	0.0         	                	;
 Node-169            	1747.0      	0.0         	                	;
 Node-170            	1747.0      	0.0         	                	;
 Node-171            	1745.0      	0.0         	                	;
 Node-172            	1745.0      	0.0         	                	;
 Node-173            	1746.0      	0.0         	                	;
 Node-174            	1744.0      	0.0         	                	;
 Node-175            	1744.0      	0.0         	                	;
 Node-176            	1741.0      	0.0         	                	;
 Node-177            	1739.0      	0.0         	                	;
 Node-178            	1739.0      	0.0         	                	;
 Node-179            	1739.0      	0.0         	                	;
 Node-180            	1739.0      	0.0         	                	;
 Node-181            	1737.0      	0.0         	                	;
 Node-182            	1737.0      	0.0         	                	;
 Node-185            	1737.0      	0.0         	                	;
 Node-184            	1737.0      	0.0         	                	;
 Node-186            	1737.0      	0.0         	                	;
 Node-187            	1737.0      	0.0         	                	;
 Node-188            	1740.0      	0.0         	                	;
 Node-189            	1740.0      	0.0         	                	;
 Node-190            	1743.0      	0.0         	                	;
 Node-191            	1743.0      	0.0         	                	;
 Node-192            	1747.0      	0.003703704 	                	;
 Node-194            	1740.0      	0.0         	                	;
 Node-195            	1740.0      	0.0         	                	;
 Node-196            	1741.0      	0.0         	                	;
 Node-197            	1741.0      	0.0         	                	;
 Node-198            	1740.0      	0.00462963  	                	;
 Node-414            	1744.0      	0.0         	                	;
 Node-200            	1743.0      	0.002777778 	                	;
 Node-202            	1759.0      	0.0         	                	;
 Node-203            	1756.0      	0.0         	                	;
 Node-204            	1756.0      	0.0         	                	;
 Node-205            	1756.0      	0.0         	                	;
 Node-206            	1756.0      	0.0         	                	;
 Node-207            	1755.0      	0.0         	                	;
 Node-208            	1750.0      	0.0         	                	;
 Node-209            	1750.0      	0.0         	                	;
 Node-210            	1748.0      	0.0         	                	;
 Node-211            	1746.0      	0.0         	                	;
 Node-213            	1747.0      	0.0         	                	;
 Node-214            	1745.0      	0.0         	                	;
 Node-215            	1745.0      	0.0         	                	;
 Node-216            	1743.0      	0.0         	                	;
 Node-217            	1744.0      	0.0         	                	;
 Node-218            	1743.0      	0.0         	                	;
 Node-219            	1741.0      	0.0         	                	;
 Node-220            	1742.0      	0.0         	                	;
 Node-221            	1741.0      	0.0         	                	;
 Node-222            	1739.0      	0.0         	                	;
 Node-223            	1739.0      	0.0         	                	;
 Node-224            	1739.0      	0.0         	                	;
 Node-225            	1738.0      	0.0         	                	;
 Node-226            	1738.0      	0.0         	                	;
 Node-227            	1737.0      	0.0         	                	;
 Node-228            	1736.0      	0.0         	                	;
 Node-438            	1738.0      	0.0         	                	;
 Node-388            	1768.0      	0.0         	                	;
 Node-231            	1768.0      	0.0         	                	;
 Node-232            	1769.0      	0.0         	                	;
 Node-233            	1769.0      	0.0         	                	;
 Node-234            	1769.0      	0.0         	                	;
 Node-235            	1770.0      	0.0         	                	;
 Node-236            	1771.0      	0.0         	                	;
 Node-237            	1772.0      	0.0         	                	;
 Node-238            	1771.0      	0.0         	                	;
 Node-239            	1772.0      	0.0         	                	;
 Node-240            	1771.0      	0.0         	                	;
 Node-241            	1774.0      	0.0         	                	;
 Node-242            	1773.0      	0.0         	                	;
 Node-243            	1775.0      	0.0         	                	;
 Node-244            	1775.0      	0.0         	                	;
 Node-245            	1776.0      	0.0         	                	;
 Node-246            	1776.0      	0.0         	                	;
 Node-247            	1775.0      	0.0         	                	;
 Node-248            	1779.0      	0.0         	                	;
 Node-249            	1779.0      	0.0         	                	;
 Node-250            	1779.0      	0.0         	                	;
 Node-251            	1780.0      	0.0         	                	;
 Node-252            	1780.0      	0.0         	                	;
 Node-253            	1782.0      	0.0         	                	;
 Node-255            	1783.0      	0.0         	                	;
 Node-256            	1782.0      	0.0         	                	;
 Node-257            	1782.0      	0.0         	                	;
 Node-258            	1781.0      	0.0         	                	;
 Node-259            	1781.0      	0.0         	                	;
 Node-260            	1780.0      	0.0         	                	;
 Node-261            	1779.0      	0.0         	                	;
 Node-262            	1779.0      	0.0         	                	;
 Node-263            	1780.0      	0.0         	                	;
 Node-264            	1780.0      	0.0         	                	;
 Node-265            	1780.0      	0.0         	                	;
 Node-266            	1778.0      	0.0         	                	;
 Node-267            	1778.0      	0.0         	                	;
 Node-268            	1776.0      	0.0         	                	;
 Node-269            	1776.0      	0.0         	                	;
 Node-270            	1775.0      	0.0         	                	;
 Node-271            	1773.0      	0.0         	                	;
 Node-272            	1774.0      	0.0         	                	;
 Node-273            	1774.0      	0.0         	                	;
 Node-274            	1773.0      	0.0         	                	;
 Node-275            	1773.0      	0.0         	                	;
 Node-276            	1772.0      	0.0         	                	;
 Node-277            	1771.0      	0.0         	                	;
 Node-278            	1768.0      	0.0         	                	;
 Node-279            	1769.0      	0.0         	                	;
 Node-280            	1770.0      	0.0         	                	;
 Node-281            	1769.0      	0.0         	                	;
 Node-282            	1768.0      	0.0         	                	;
 Node-283            	1767.0      	0.0         	                	;
 Node-284            	1766.0      	0.0         	                	;
 Node-285            	1766.0      	0.0         	                	;
 Node-286            	1764.0      	0.0         	                	;
 Node-287            	1762.0      	0.0         	                	;
 Node-288            	1763.0      	0.0         	                	;
 Node-289            	1762.0      	0.0         	                	;
 Node-290            	1762.0      	0.0         	                	;
 Node-291            	1762.0      	0.0         	                	;
 Node-292            	1761.0      	0.0         	                	;
 Node-293            	1760.0      	0.0         	                	;
 Node-484            	1761.0      	0.0         	                	;
 Node-321            	1756.0      	0.0         	                	;
 Node-296            	1756.0      	0.0         	                	;
 Node-297            	1753.0      	0.0         	                	;
 Node-298            	1753.0      	0.0         	                	;
 Node-299            	1753.0      	0.0         	                	;
 Node-300            	1751.0      	0.0         	                	;
 Node-301            	1747.0      	0.0         	                	;
 Node-302            	1746.0      	0.0         	                	;
 Node-303            	1746.0      	0.0         	                	;
 Node-304            	1744.0      	0.0         	                	;
 Node-305            	1742.0      	0.001851852 	                	;
 Node-307            	1760.0      	0.0         	                	;
 Node-308            	1759.0      	0.0         	                	;
 Node-309            	1759.0      	0.0         	                	;
 Node-310            	1760.0      	0.0         	                	;
 Node-311            	1759.0      	0.0         	                	;
 Node-312            	1759.0      	0.0         	                	;
 Node-313            	1759.0      	0.0         	                	;
 Node-314            	1759.0      	0.0         	                	;
 Node-315            	1758.0      	0.0         	                	;
 Node-316            	1757.0      	0.0         	                	;
 Node-317            	1755.0      	0.0         	                	;
 Node-318            	1755.0      	0.0         	                	;
 Node-319            	1756.0      	0.0         	                	;
 Node-320            	1755.0      	0.0         	                	;
 Node-322            	1756.0      	0.0         	                	;
 Node-323            	1753.0      	0.0         	                	;
 Node-479            	1751.0      	0.0         	                	;
 Node-325            	1751.0      	0.0         	                	;
 Node-326            	1751.0      	0.0         	                	;
 Node-327            	1750.0      	0.0         	                	;
 Node-328            	1751.0      	0.0         	                	;
 Node-329            	1750.0      	0.0         	                	;
 Node-330            	1748.0      	0.0         	                	;
 Node-475            	1748.0      	0.0         	                	;
 Node-332            	1747.0      	0.0         	                	;
 Node-333            	1747.0      	0.0         	                	;
 Node-334            	1746.0      	0.0         	                	;
 Node-335            	1746.0      	0.0         	                	;
 Node-336            	1744.0      	0.0         	                	;
 Node-337            	1744.0      	0.0         	                	;
 Node-498            	1745.0      	0.0         	                	;
 Node-339            	1743.0      	0.0         	                	;
 Node-340            	1741.0      	0.0         	                	;
 Node-341            	1740.0      	0.0         	                	;
 Node-342            	1738.0      	0.0         	                	;
 Node-343            	1737.0      	0.0         	                	;
 Node-496            	1735.0      	0.0         	                	;
 Node-345            	1733.0      	0.0         	                	;
 Node-346            	1732.0      	0.0         	                	;
 Node-347            	1730.0      	0.0         	                	;
 Node-348            	1729.0      	0.0         	                	;
 Node-474            	1758.0      	0.0         	                	;
 Node-353            	1805.0      	0.0         	                	;
 Node-354            	1801.0      	0.0         	                	;
 Node-356            	1798.0      	0.0         	                	;
 Node-358            	1798.0      	0.0         	                	;
 Node-359            	1797.0      	0.0         	                	;
 Node-360            	1796.0      	0.0         	                	;
 Node-361            	1794.0      	0.0         	                	;
 Node-362            	1792.0      	0.0         	                	;
 Node-363            	1791.0      	0.0         	                	;
 Node-364            	1791.0      	0.0         	                	;
 Node-365            	1790.0      	0.0         	                	;
 Node-366            	1789.0      	0.0         	                	;
 Node-367            	1788.0      	0.0         	                	;
 Node-368            	1788.0      	0.0         	                	;
 Node-369            	1787.0      	0.0         	                	;
 Node-370            	1785.0      	0.0         	                	;
 Node-371            	1784.0      	0.0         	                	;
 Node-372            	1784.0      	0.0         	                	;
 Node-373            	1784.0      	0.0         	                	;
 Node-374            	1783.0      	0.0         	                	;
 Node-375            	1782.0      	0.0         	                	;
 Node-376            	1781.0      	0.0         	                	;
 Node-377            	1779.0      	0.0         	                	;
 Node-378            	1778.0      	0.0         	                	;
 Node-379            	1777.0      	0.0         	                	;
 Node-380            	1775.0      	0.0         	                	;
 Node-381            	1773.0      	0.0         	                	;
 Node-382            	1771.0      	0.0         	                	;
 Node-383            	1770.0      	0.0         	                	;
 Node-384            	1770.0      	0.0         	                	;
 Node-385            	1769.0      	0.0         	                	;
 Node-386            	1770.0      	0.0         	                	;
 Node-387            	1769.0      	0.0         	                	;
 Node-390            	1751.0      	0.0         	                	;
 Node-391            	1750.0      	0.0         	                	;
 Node-392            	1750.0      	0.0         	                	;
 Node-393            	1749.0      	0.0         	                	;
 Node-395            	1759.0      	0.0         	                	;
 Node-396            	1758.0      	0.0         	                	;
 Node-397            	1758.0      	0.0         	                	;
 Node-398            	1758.0      	0.0         	                	;
 Node-399            	1757.0      	0.0         	                	;
 Node-400            	1756.0      	0.0         	                	;
 Node-402            	1755.0      	0.0         	                	;
 Node-403            	1755.0      	0.0         	                	;
 Node-405            	1754.0      	0.0         	                	;
 Node-406            	1753.0      	0.0         	                	;
 Node-407            	1751.0      	0.0         	                	;
 Node-408            	1750.0      	0.0         	                	;
 Node-409            	1750.0      	0.0         	                	;
 Node-410            	1748.0      	0.0         	                	;
 Node-411            	1746.0      	0.0         	                	;
 Node-412            	1746.0      	0.0         	                	;
 Node-413            	1745.0      	0.0         	                	;
 Node-416            	1740.0      	0.0         	                	;
 Node-417            	1740.0      	0.0         	                	;
 Node-418            	1739.0      	0.0         	                	;
 Node-419            	1738.0      	0.0         	                	;
 Node-420            	1737.0      	0.0         	                	;
 Node-421            	1735.0      	0.0         	                	;
 Node-422            	1734.0      	0.0         	                	;
 Node-423            	1733.0      	0.0         	                	;
 Node-505            	1732.0      	0.0         	                	;
 Node-425            	1731.0      	0.0         	                	;
 Node-426            	1730.0      	0.0         	                	;
 Node-510            	1730.0      	0.0         	                	;
 Node-428            	1729.0      	0.0         	                	;
 Node-430            	1729.0      	0.0         	                	;
 Node-431            	1729.0      	0.0         	                	;
 Node-432            	1729.0      	0.0         	                	;
 Node-433            	1729.0      	0.0         	                	;
 Node-434            	1729.0      	0.0         	                	;
 Node-491            	1729.0      	0.0         	                	;
 Node-436            	1729.0      	0.0         	                	;
 Node-437            	1728.0      	0.0         	                	;
 Node-439            	1739.0      	0.0         	                	;
 Node-440            	1740.0      	0.0         	                	;
 Node-441            	1737.0      	0.0         	                	;
 Node-442            	1738.0      	0.0         	                	;
 Node-443            	1738.0      	0.0         	                	;
 Node-444            	1739.0      	0.0         	                	;
 Node-445            	1739.0      	0.0         	                	;
 Node-446            	1739.0      	0.0         	                	;
 Node-447            	1742.0      	0.0         	                	;
 Node-448            	1742.0      	0.0         	                	;
 Node-449            	1742.0      	0.0         	                	;
 Node-450            	1746.0      	0.0         	                	;
 Node-451            	1746.0      	0.0         	                	;
 Node-452            	1745.0      	0.0         	                	;
 Node-453            	1744.0      	0.0         	                	;
 Node-454            	1746.0      	0.0         	                	;
 Node-455            	1746.0      	0.0         	                	;
 Node-456            	1748.0      	0.0         	                	;
 Node-457            	1747.0      	0.0         	                	;
 Node-458            	1749.0      	0.0         	                	;
 Node-459            	1749.0      	0.0         	                	;
 Node-460            	1750.0      	0.0         	                	;
 Node-461            	1752.0      	0.0         	                	;
 Node-462            	1753.0      	0.0         	                	;
 Node-463            	1754.0      	0.0         	                	;
 Node-464            	1755.0      	0.0         	                	;
 Node-465            	1756.0      	0.0         	                	;
 Node-466            	1757.0      	0.0         	                	;
 Node-467            	1757.0      	0.0         	                	;
 Node-468            	1758.0      	0.0         	                	;
 Node-469            	1758.0      	0.0         	                	;
 Node-470            	1758.0      	0.0         	                	;
 Node-472            	1758.0      	0.0         	                	;