[TITLE]
20423 KabusanzaIDModelVillageWSS(Rusagara-Kabusanza) WSS in Huye District

[JUNCTIONS]
;ID                  	Elev        	Demand      	Pattern         
 Node-2              	1805.0      	0.0         	                	;
 Node-241            	1803.0      	0.0         	                	;
 Node-5              	1698.0      	0.0         	                	;
 Node-6              	1696.0      	0.0         	                	;
 Node-7              	1691.0      	0.0         	                	;
 Node-8              	1698.0      	0.0         	                	;
 Node-9              	1694.0      	0.0         	                	;
 Node-10             	1690.0      	0.0         	                	;
 Node-11             	1690.0      	0.0         	                	;
 Node-12             	1688.0      	0.0         	                	;
 Node-13             	1686.0      	0.0         	                	;
 Node-14             	1683.0      	0.0         	                	;
 Node-15             	1682.0      	0.0         	                	;
 Node-16             	1681.0      	0.0         	                	;
 Node-17             	1681.0      	0.0         	                	;
 Node-18             	1682.0      	0.0         	                	;
 Node-19             	1683.0      	0.0         	                	;
 Node-20             	1688.0      	0.0         	                	;
 Node-21             	1690.0      	0.0         	                	;
 Node-22             	1692.0      	0.0         	                	;
 Node-23             	1694.0      	0.0         	                	;
 Node-240            	1687.0      	0.0         	                	;
 Node-26             	1687.0      	0.0         	                	;
 Node-27             	1686.0      	0.0         	                	;
 Node-28             	1685.0      	0.0         	                	;
 Node-29             	1683.0      	0.0         	                	;
 Node-30             	1682.0      	0.0         	                	;
 Node-31             	1681.0      	0.0         	                	;
 Node-238            	1688.0      	0.0         	                	;
 Node-33             	1688.0      	0.0         	                	;
 Node-34             	1687.0      	0.0         	                	;
 Node-35             	1687.0      	0.0         	                	;
 Node-36             	1687.0      	0.0         	                	;
 Node-37             	1686.0      	0.0         	                	;
 Node-38             	1687.0      	0.0         	                	;
 Node-39             	1686.0      	0.0         	                	;
 Node-40             	1686.0      	0.0         	                	;
 Node-41             	1686.0      	0.001851852 	                	;
 Node-66             	1689.0      	0.0         	                	;
 Node-43             	1689.0      	0.002777778 	                	;
 Node-45             	1733.0      	0.0         	                	;
 Node-46             	1728.0      	0.0         	                	;
 Node-47             	1726.0      	0.0         	                	;
 Node-48             	1723.0      	0.0         	                	;
 Node-49             	1717.0      	0.0         	                	;
 Node-50             	1716.0      	0.0         	                	;
 Node-51             	1716.0      	0.0         	                	;
 Node-52             	1712.0      	0.0         	                	;
 Node-53             	1711.0      	0.0         	                	;
 Node-54             	1709.0      	0.0         	                	;
 Node-55             	1708.0      	0.0         	                	;
 Node-56             	1704.0      	0.0         	                	;
 Node-57             	1703.0      	0.0         	                	;
 Node-58             	1704.0      	0.0         	                	;
 Node-59             	1702.0      	0.0         	                	;
 Node-60             	1699.0      	0.0         	                	;
 Node-61             	1697.0      	0.0         	                	;
 Node-62             	1696.0      	0.0         	                	;
 Node-63             	1694.0      	0.0         	                	;
 Node-64             	1693.0      	0.0         	                	;
 Node-65             	1689.0      	0.0         	                	;
 Node-67             	1687.0      	0.0         	                	;
 Node-68             	1686.0      	0.0         	                	;
 Node-327            	1685.0      	0.0         	                	;
 Node-71             	1732.0      	0.0         	                	;
 Node-144            	1728.0      	0.0         	                	;
 Node-73             	1728.0      	0.0         	                	;
 Node-74             	1729.0      	0.0         	                	;
 Node-75             	1728.0      	0.0         	                	;
 Node-76             	1728.0      	0.0         	                	;
 Node-77             	1727.0      	0.0         	                	;
 Node-78             	1727.0      	0.0         	                	;
 Node-79             	1726.0      	0.002777778 	                	;
 Node-174            	1735.0      	0.0         	                	;
 Node-81             	1735.0      	0.0         	                	;
 Node-82             	1734.0      	0.0         	                	;
 Node-84             	1743.0      	0.0         	                	;
 Node-85             	1743.0      	0.0         	                	;
 Node-86             	1741.0      	0.0         	                	;
 Node-87             	1742.0      	0.0         	                	;
 Node-88             	1742.0      	0.0         	                	;
 Node-268            	1740.0      	0.0         	                	;
 Node-91             	1743.0      	0.0         	                	;
 Node-92             	1743.0      	0.0         	                	;
 Node-93             	1741.0      	0.0         	                	;
 Node-94             	1742.0      	0.0         	                	;
 Node-95             	1742.0      	0.0         	                	;
 Node-151            	1764.0      	0.0         	                	;
 Node-98             	1764.0      	0.0         	                	;
 Node-99             	1762.0      	0.0         	                	;
 Node-100            	1761.0      	0.0         	                	;
 Node-101            	1760.0      	0.0         	                	;
 Node-102            	1760.0      	0.0         	                	;
 Node-103            	1758.0      	0.0         	                	;
 Node-104            	1757.0      	0.0         	                	;
 Node-105            	1757.0      	0.0         	                	;
 Node-106            	1757.0      	0.0         	                	;
 Node-107            	1757.0      	0.0         	                	;
 Node-108            	1757.0      	0.000925926 	                	;
 Node-109            	1812.0      	0.0         	                	;
 Node-112            	1768.0      	0.0         	                	;
 Node-113            	1768.0      	0.0         	                	;
 Node-114            	1766.0      	0.0         	                	;
 Node-115            	1765.0      	0.0         	                	;
 Node-116            	1764.0      	0.0         	                	;
 Node-117            	1762.0      	0.0         	                	;
 Node-118            	1762.0      	0.0         	                	;
 Node-119            	1762.0      	0.0         	                	;
 Node-120            	1761.0      	0.0         	                	;
 Node-121            	1760.0      	0.0         	                	;
 Node-122            	1755.0      	0.0         	                	;
 Node-123            	1754.0      	0.0         	                	;
 Node-124            	1753.0      	0.0         	                	;
 Node-125            	1753.0      	0.0         	                	;
 Node-126            	1749.0      	0.0         	                	;
 Node-127            	1749.0      	0.0         	                	;
 Node-129            	1769.0      	0.0         	                	;
 Node-130            	1768.0      	0.0         	                	;
 Node-131            	1768.0      	0.0         	                	;
 Node-132            	1768.0      	0.0         	                	;
 Node-134            	1803.0      	0.0         	                	;
 Node-135            	1734.0      	0.0         	                	;
 Node-136            	1733.0      	0.002777778 	                	;
 Node-138            	1732.0      	0.0         	                	;
 Node-139            	1730.0      	0.0         	                	;
 Node-140            	1729.0      	0.0         	                	;
 Node-141            	1729.0      	0.0         	                	;
 Node-142            	1729.0      	0.0         	                	;
 Node-143            	1728.0      	0.0         	                	;
 Node-145            	1729.0      	0.0         	                	;
 Node-147            	1768.0      	0.0         	                	;
 Node-148            	1768.0      	0.0         	                	;
 Node-149            	1766.0      	0.0         	                	;
 Node-150            	1765.0      	0.0         	                	;
 Node-152            	1762.0      	0.0         	                	;
 Node-153            	1762.0      	0.0         	                	;
 Node-154            	1762.0      	0.0         	                	;
 Node-155            	1761.0      	0.0         	                	;
 Node-156            	1760.0      	0.0         	                	;
 Node-157            	1755.0      	0.0         	                	;
 Node-158            	1754.0      	0.0         	                	;
 Node-159            	1751.0      	0.0         	                	;
 Node-160            	1751.0      	0.0         	                	;
 Node-161            	1749.0      	0.0         	                	;
 Node-162            	1749.0      	0.0         	                	;
 Node-163            	1749.0      	0.0         	                	;
 Node-164            	1749.0      	0.0         	                	;
 Node-165            	1748.0      	0.0         	                	;
 Node-166            	1747.0      	0.0         	                	;
 Node-167            	1745.0      	0.0         	                	;
 Node-168            	1742.0      	0.0         	                	;
 Node-169            	1741.0      	0.0         	                	;
 Node-170            	1739.0      	0.0         	                	;
 Node-171            	1738.0      	0.0         	                	;
 Node-172            	1736.0      	0.0         	                	;
 Node-173            	1736.0      	0.0         	                	;
 Node-175            	1734.0      	0.0         	                	;
 Node-176            	1734.0      	0.0         	                	;
 Node-177            	1733.0      	0.0         	                	;
 Node-178            	1733.0      	0.0         	                	;
 Node-179            	1731.0      	0.0         	                	;
 Node-180            	1731.0      	0.0         	                	;
 Node-181            	1730.0      	0.0         	                	;
 Node-182            	1730.0      	0.0         	                	;
 Node-183            	1729.0      	0.0         	                	;
 Node-184            	1729.0      	0.0         	                	;
 Node-185            	1729.0      	0.0         	                	;
 Node-186            	1729.0      	0.0         	                	;
 Node-187            	1729.0      	0.0         	                	;
 Node-188            	1730.0      	0.0         	                	;
 Node-189            	1730.0      	0.0         	                	;
 Node-190            	1732.0      	0.0         	                	;
 Node-193            	1687.0      	0.0         	                	;
 Node-194            	1687.0      	0.0         	                	;
 Node-195            	1686.0      	0.0         	                	;
 Node-196            	1686.0      	0.0         	                	;
 Node-259            	1745.0      	0.0         	                	;
 Node-198            	1746.0      	0.0         	                	;
 Node-199            	1747.0      	0.0         	                	;
 Node-200            	1748.0      	0.0         	                	;
 Node-201            	1749.0      	0.0         	                	;
 Node-202            	1745.0      	0.0         	                	;
 Node-203            	1744.0      	0.0         	                	;
 Node-204            	1747.0      	0.0         	                	;
 Node-205            	1745.0      	0.0         	                	;
 Node-206            	1748.0      	0.0         	                	;
 Node-207            	1747.0      	0.0         	                	;
 Node-208            	1749.0      	0.0         	                	;
 Node-209            	1748.0      	0.0         	                	;
 Node-210            	1749.0      	0.0         	                	;
 Node-211            	1749.0      	0.0         	                	;
 Node-212            	1748.0      	0.0         	                	;
 Node-213            	1748.0      	0.0         	                	;
 Node-214            	1748.0      	0.0         	                	;
 Node-215            	1750.0      	0.0         	                	;
 Node-216            	1751.0      	0.0         	                	;
 Node-217            	1751.0      	0.0         	                	;
 Node-218            	1753.0      	0.0         	                	;
 Node-219            	1756.0      	0.0         	                	;
 Node-220            	1758.0      	0.0         	                	;
 Node-221            	1759.0      	0.0         	                	;
 Node-222            	1759.0      	0.0         	                	;
 Node-223            	1760.0      	0.0         	                	;
 Node-224            	1761.0      	0.0         	                	;
 Node-225            	1762.0      	0.0         	                	;
 Node-226            	1762.0      	0.0         	                	;
 Node-227            	1763.0      	0.0         	                	;
 Node-228            	1763.0      	0.0         	                	;
 Node-229            	1763.0      	0.0         	                	;
 Node-230            	1765.0      	0.0         	                	;
 Node-231            	1767.0      	0.0         	                	;
 Node-232            	1768.0      	0.0         	                	;
 Node-267            	1690.0      	0.0         	                	;
 Node-235            	1690.0      	0.0         	                	;
 Node-236            	1689.0      	0.0         	                	;
 Node-237            	1688.0      	0.0         	                	;
 Node-239            	1687.0      	0.0         	                	;
 Node-242            	1798.0      	0.0         	                	;
 Node-243            	1795.0      	0.0         	                	;
 Node-244            	1789.0      	0.0         	                	;
 Node-245            	1785.0      	0.0         	                	;
 Node-246            	1775.0      	0.0         	                	;
 Node-247            	1770.0      	0.0         	                	;
 Node-248            	1764.0      	0.0         	                	;
 Node-249            	1762.0      	0.0         	                	;
 Node-250            	1757.0      	0.0         	                	;
 Node-251            	1754.0      	0.0         	                	;
 Node-252            	1752.0      	0.0         	                	;
 Node-253            	1751.0      	0.0         	                	;
 Node-254            	1749.0      	0.0         	                	;
 Node-255            	1750.0      	0.0         	                	;
 Node-256            	1751.0      	0.0         	                	;
 Node-257            	1750.0      	0.0         	                	;
 Node-258            	1744.0      	0.0         	                	;
 Node-261            	1685.0      	0.0         	                	;
 Node-262            	1686.0      	0.0         	                	;
 Node-263            	1688.0      	0.0         	                	;
 Node-264            	1689.0      	0.0         	                	;
 Node-265            	1690.0      	0.0         	                	;
 Node-266            	1691.0      	0.0         	                	;
 Node-269            	1736.0      	0.0         	                	;
 Node-270            	1734.0      	0.0         	                	;
 Node-271            	1730.0      	0.0         	                	;
 Node-272            	1729.0      	0.0         	                	;
 Node-273            	1727.0      	0.0         	                	;
 Node-274            	1726.0      	0.0         	                	;
 Node-275            	1724.0      	0.0         	                	;
 Node-276            	1723.0      	0.0         	                	;
 Node-277            	1722.0      	0.0         	                	;
 Node-278            	1722.0      	0.0         	                	;
 Node-279            	1720.0      	0.0         	                	;
 Node-280            	1720.0      	0.0         	                	;
 Node-281            	1719.0      	0.0         	                	;
 Node-282            	1718.0      	0.0         	                	;
 Node-283            	1718.0      	0.0         	                	;
 Node-284            	1718.0      	0.0         	                	;
 Node-285            	1718.0      	0.0         	                	;
 Node-286            	1717.0      	0.0         	                	;
 Node-287            	1716.0      	0.0         	                	;
 Node-288            	1716.0      	0.0         	                	;
 Node-289            	1714.0      	0.0         	                	;
 Node-290            	1714.0      	0.0         	                	;
 Node-291            	1710.0      	0.0         	                	;
 Node-292            	1708.0      	0.0         	                	;
 Node-293            	1709.0      	0.0         	                	;
 Node-294            	1709.0      	0.0         	                	;
 Node-295            	1707.0      	0.0         	                	;
 Node-296            	1706.0      	0.0         	                	;
 Node-297            	1706.0      	0.0         	                	;
 Node-298            	1708.0      	0.0         	                	;
 Node-299            	1710.0      	0.0         	                	;
 Node-300            	1711.0      	0.0         	                	;
 Node-301            	1714.0      	0.0         	                	;
 Node-302            	1716.0      	0.0         	                	;
 Node-303            	1716.0      	0.0         	                	;
 Node-304            	1717.0      	0.0         	                	;
 Node-305            	1716.0      	0.0         	                	;
 Node-306            	1718.0      	0.0         	                	;
 Node-307            	1717.0      	0.0         	                	;
 Node-308            	1722.0      	0.0         	                	;
 Node-309            	1725.0      	0.0         	                	;
 Node-310            	1728.0      	0.0         	                	;
 Node-311            	1730.0      	0.0         	                	;
 Node-312            	1731.0      	0.0         	                	;
 Node-313            	1730.0      	0.0         	                	;
 Node-314            	1730.0      	0.0         	                	;
 Node-315            	1729.0      	0.0         	                	;
 Node-316            	1729.0      	0.0         	                	;
 Node-317            	1729.0      	0.0         	                	;
 Node-318            	1729.0      	0.0         	                	;
 Node-319            	1728.0      	0.0         	                	;
 Node-320            	1729.0      	0.0         	                	;
 Node-321            	1729.0      	0.0         	                	;
 Node-322            	1730.0      	0.0         	                	;
 Node-323            	1730.0      	0.0         	                	;
 Node-324            	1731.0      	0.0         	                	;
 Node-325            	1732.0      	0.0         	                	;
 Node-328            	1685.0      	0.0         	                	;
 Node-329            	1684.0      	0.0         	                	;
 Node-330            	1683.0      	0.0         	                	;

[RESERVOIRS]
;ID                  	Head        	Pattern         
 Spring-5581         	1745        	                	;
 Spring-5582         	1747        	                	;
 Spring-5583         	1809        	                	;
 Spring-5584         	1822        	                	;

[TANKS]
;ID                  	Elevation   	InitLevel   	MinLevel    	MaxLevel    	Diameter    	MinVol      	VolCurve
 Tank-19512          	1733        	0.75        	0.15000000000000002     	1.5         	5           	10.0        	                	;
 Tank-19514          	1698        	0.75        	0.15000000000000002     	1.5         	5           	50.0        	                	;
 Tank-19513          	1769        	0.75        	0.15000000000000002     	1.5         	5           	5.0         	                	;

[PIPES]
;ID                  	Node1               	Node2               	Length      	Diameter    	Roughness   	MinorLoss   	Status
 Pipe-123765-0       	Spring-5583         	Node-2              	14.511      	63          	100         	0           	Open  	;
 Pipe-123765-1       	Node-2              	Node-241            	12.039      	63          	100         	0           	Open  	;
 Pipe-123766-0       	Tank-19514          	Node-5              	8.076       	32          	100         	0           	Open  	;
 Pipe-123766-1       	Node-5              	Node-6              	7.22        	32          	100         	0           	Open  	;
 Pipe-123766-2       	Node-6              	Node-7              	26.428      	32          	100         	0           	Open  	;
 Pipe-123767-0       	Node-8              	Node-9              	32.764      	32          	100         	0           	Open  	;
 Pipe-123767-1       	Node-9              	Node-10             	41.6        	32          	100         	0           	Open  	;
 Pipe-123767-2       	Node-10             	Node-11             	5.362       	32          	100         	0           	Open  	;
 Pipe-123767-3       	Node-11             	Node-12             	18.809      	32          	100         	0           	Open  	;
 Pipe-123767-4       	Node-12             	Node-13             	23.902      	32          	100         	0           	Open  	;
 Pipe-123767-5       	Node-13             	Node-14             	35.343      	32          	100         	0           	Open  	;
 Pipe-123767-6       	Node-14             	Node-15             	40.285      	32          	100         	0           	Open  	;
 Pipe-123768-0       	Node-16             	Node-17             	40.307      	50          	100         	0           	Open  	;
 Pipe-123768-1       	Node-17             	Node-18             	26.16       	50          	100         	0           	Open  	;
 Pipe-123768-2       	Node-18             	Node-19             	28.431      	50          	100         	0           	Open  	;
 Pipe-123768-3       	Node-19             	Node-20             	57.727      	50          	100         	0           	Open  	;
 Pipe-123768-4       	Node-20             	Node-21             	20.333      	50          	100         	0           	Open  	;
 Pipe-123768-5       	Node-21             	Node-22             	5.674       	50          	100         	0           	Open  	;
 Pipe-123768-6       	Node-22             	Node-23             	40.681      	50          	100         	0           	Open  	;
 Pipe-123768-7       	Node-23             	Tank-19514          	33.787      	50          	100         	0           	Open  	;
 Pipe-123769-0       	Node-240            	Node-26             	6.168       	50          	100         	0           	Open  	;
 Pipe-123769-1       	Node-26             	Node-27             	9.746       	50          	100         	0           	Open  	;
 Pipe-123769-2       	Node-27             	Node-28             	19.159      	50          	100         	0           	Open  	;
 Pipe-123769-3       	Node-28             	Node-29             	25.86       	50          	100         	0           	Open  	;
 Pipe-123769-4       	Node-29             	Node-30             	25.865      	50          	100         	0           	Open  	;
 Pipe-123769-5       	Node-30             	Node-31             	9.598       	50          	100         	0           	Open  	;
 Pipe-123770-0       	Node-238            	Node-33             	5.703       	25          	100         	0           	Open  	;
 Pipe-123770-1       	Node-33             	Node-34             	15.377      	25          	100         	0           	Open  	;
 Pipe-123770-2       	Node-34             	Node-35             	9.211       	25          	100         	0           	Open  	;
 Pipe-123770-3       	Node-35             	Node-36             	5.773       	25          	100         	0           	Open  	;
 Pipe-123770-4       	Node-36             	Node-37             	6.384       	25          	100         	0           	Open  	;
 Pipe-123770-5       	Node-37             	Node-38             	7.677       	25          	100         	0           	Open  	;
 Pipe-123770-6       	Node-38             	Node-39             	5.181       	25          	100         	0           	Open  	;
 Pipe-123770-7       	Node-39             	Node-40             	5.921       	25          	100         	0           	Open  	;
 Pipe-123770-8       	Node-40             	Node-41             	6.306       	25          	100         	0           	Open  	;
 Pipe-123771-0       	Node-66             	Node-43             	6.094       	25          	100         	0           	Open  	;
 Pipe-123772-0       	Tank-19512          	Node-45             	17.597      	50          	100         	0           	Open  	;
 Pipe-123772-1       	Node-45             	Node-46             	52.602      	50          	100         	0           	Open  	;
 Pipe-123772-2       	Node-46             	Node-47             	28.627      	50          	100         	0           	Open  	;
 Pipe-123772-3       	Node-47             	Node-48             	22.289      	50          	100         	0           	Open  	;
 Pipe-123772-4       	Node-48             	Node-49             	31.354      	50          	100         	0           	Open  	;
 Pipe-123772-5       	Node-49             	Node-50             	15.873      	50          	100         	0           	Open  	;
 Pipe-123772-6       	Node-50             	Node-51             	30.61       	50          	100         	0           	Open  	;
 Pipe-123772-7       	Node-51             	Node-52             	37.112      	50          	100         	0           	Open  	;
 Pipe-123772-8       	Node-52             	Node-53             	32.652      	50          	100         	0           	Open  	;
 Pipe-123772-9       	Node-53             	Node-54             	31.989      	50          	100         	0           	Open  	;
 Pipe-123772-10      	Node-54             	Node-55             	29.125      	50          	100         	0           	Open  	;
 Pipe-123772-11      	Node-55             	Node-56             	31.11       	50          	100         	0           	Open  	;
 Pipe-123772-12      	Node-56             	Node-57             	31.218      	50          	100         	0           	Open  	;
 Pipe-123772-13      	Node-57             	Node-58             	26.493      	50          	100         	0           	Open  	;
 Pipe-123772-14      	Node-58             	Node-59             	34.109      	50          	100         	0           	Open  	;
 Pipe-123772-15      	Node-59             	Node-60             	36.062      	50          	100         	0           	Open  	;
 Pipe-123772-16      	Node-60             	Node-61             	48.946      	50          	100         	0           	Open  	;
 Pipe-123772-17      	Node-61             	Node-62             	35.787      	50          	100         	0           	Open  	;
 Pipe-123772-18      	Node-62             	Node-63             	41.497      	50          	100         	0           	Open  	;
 Pipe-123772-19      	Node-63             	Node-64             	30.029      	50          	100         	0           	Open  	;
 Pipe-123772-20      	Node-64             	Node-65             	83.496      	50          	100         	0           	Open  	;
 Pipe-123772-21      	Node-65             	Node-66             	3.08        	50          	100         	0           	Open  	;
 Pipe-123772-22      	Node-66             	Node-67             	34.367      	50          	100         	0           	Open  	;
 Pipe-123772-23      	Node-67             	Node-68             	75.392      	50          	100         	0           	Open  	;
 Pipe-123772-24      	Node-68             	Node-327            	13.685      	50          	100         	0           	Open  	;
 Pipe-123773-0       	Tank-19512          	Node-71             	54.997      	32          	100         	0           	Open  	;
 Pipe-123774-0       	Node-144            	Node-73             	1.475       	25          	100         	0           	Open  	;
 Pipe-123774-1       	Node-73             	Node-74             	5.917       	25          	100         	0           	Open  	;
 Pipe-123774-2       	Node-74             	Node-75             	4.244       	25          	100         	0           	Open  	;
 Pipe-123774-3       	Node-75             	Node-76             	5.291       	25          	100         	0           	Open  	;
 Pipe-123774-4       	Node-76             	Node-77             	1.194       	25          	100         	0           	Open  	;
 Pipe-123774-5       	Node-77             	Node-78             	1.79        	25          	100         	0           	Open  	;
 Pipe-123774-6       	Node-78             	Node-79             	2.341       	25          	100         	0           	Open  	;
 Pipe-123775-0       	Node-174            	Node-81             	20.003      	25          	100         	0           	Open  	;