[TITLE]
20426 Rwabikanu(FreresBenedictGihindamuyaga) WSS in Huye District

[JUNCTIONS]
;ID                  	Elev        	Demand      	Pattern         
 Node-2              	1846.0      	0.0         	                	;
 Node-3              	1839.0      	0.0         	                	;
 Node-150            	1839.0      	0.0         	                	;
 Node-6              	1803.0      	0.0         	                	;
 Node-7              	1801.0      	0.005555556 	                	;
 Node-9              	1784.0      	0.0         	                	;
 Node-10             	1783.0      	0.0         	                	;
 Node-12             	1782.0      	0.166666667 	                	;
 Node-14             	1786.0      	0.0         	                	;
 Node-15             	1787.0      	0.0         	                	;
 Node-16             	1789.0      	0.0         	                	;
 Node-17             	1793.0      	0.0         	                	;
 Node-18             	1797.0      	0.0         	                	;
 Node-19             	1801.0      	0.0         	                	;
 Node-20             	1808.0      	0.0         	                	;
 Node-21             	1806.0      	0.0         	                	;
 Node-22             	1805.0      	0.0         	                	;
 Node-23             	1793.0      	0.0         	                	;
 Node-24             	1786.0      	0.0         	                	;
 Node-25             	1769.0      	0.0         	                	;
 Node-26             	1756.0      	0.0         	                	;
 Node-27             	1757.0      	0.0         	                	;
 Node-28             	1757.0      	0.0         	                	;
 Node-29             	1751.0      	0.0         	                	;
 Node-30             	1750.0      	0.0         	                	;
 Node-31             	1747.0      	0.0         	                	;
 Node-32             	1745.0      	0.0         	                	;
 Node-33             	1746.0      	0.0         	                	;
 Node-34             	1746.0      	0.0         	                	;
 Node-35             	1746.0      	0.0         	                	;
 Node-36             	1746.0      	0.0         	                	;
 Node-37             	1746.0      	0.0         	                	;
 Node-38             	1751.0      	0.0         	                	;
 Node-39             	1764.0      	0.0         	                	;
 Node-40             	1772.0      	0.0         	                	;
 Node-41             	1778.0      	0.0         	                	;
 Node-42             	1782.0      	0.0         	                	;
 Node-43             	1791.0      	0.0         	                	;
 Node-44             	1799.0      	0.0         	                	;
 Node-45             	1805.0      	0.0         	                	;
 Node-46             	1813.0      	0.0         	                	;
 Node-47             	1818.0      	0.0         	                	;
 Node-48             	1824.0      	0.0         	                	;
 Node-163            	1828.0      	0.0         	                	;
 Node-51             	1784.0      	0.0         	                	;
 Node-52             	1783.0      	0.0         	                	;
 Node-53             	1780.0      	0.0         	                	;
 Node-54             	1779.0      	0.0         	                	;
 Node-55             	1776.0      	0.0         	                	;
 Node-56             	1776.0      	0.0         	                	;
 Node-57             	1775.0      	0.0         	                	;
 Node-58             	1775.0      	0.0         	                	;
 Node-59             	1773.0      	0.0         	                	;
 Node-60             	1774.0      	0.023148148 	                	;
 Node-61             	1779.0      	0.740740741 	                	;
 Node-62             	1782.0      	0.0         	                	;
 Node-63             	1784.0      	0.0         	                	;
 Node-64             	1786.0      	0.0         	                	;
 Node-65             	1784.0      	0.0         	                	;
 Node-66             	1784.0      	0.0         	                	;
 Node-67             	1782.0      	0.0         	                	;
 Node-68             	1782.0      	0.0         	                	;
 Node-96             	1783.0      	0.0         	                	;
 Node-174            	1832.0      	0.0         	                	;
 Node-71             	1831.0      	0.0         	                	;
 Node-72             	1830.0      	0.0         	                	;
 Node-75             	1824.0      	0.0         	                	;
 Node-76             	1818.0      	0.0         	                	;
 Node-77             	1813.0      	0.0         	                	;
 Node-78             	1805.0      	0.0         	                	;
 Node-79             	1799.0      	0.0         	                	;
 Node-80             	1791.0      	0.0         	                	;
 Node-81             	1782.0      	0.0         	                	;
 Node-82             	1778.0      	0.0         	                	;
 Node-83             	1772.0      	0.0         	                	;
 Node-84             	1764.0      	0.0         	                	;
 Node-85             	1751.0      	0.0         	                	;
 Node-86             	1746.0      	0.0         	                	;
 Node-87             	1748.0      	0.0         	                	;
 Node-88             	1754.0      	0.0         	                	;
 Node-89             	1759.0      	0.0         	                	;
 Node-90             	1767.0      	0.0         	                	;
 Node-91             	1772.0      	0.0         	                	;
 Node-92             	1777.0      	0.0         	                	;
 Node-93             	1780.0      	0.0         	                	;
 Node-94             	1780.0      	0.0         	                	;
 Node-95             	1782.0      	0.0         	                	;
 Node-97             	1785.0      	0.0         	                	;
 Node-98             	1789.0      	0.0         	                	;
 Node-99             	1791.0      	0.0         	                	;
 Node-100            	1793.0      	0.0         	                	;
 Node-101            	1798.0      	0.0         	                	;
 Node-102            	1802.0      	0.0         	                	;
 Node-105            	1801.0      	0.0         	                	;
 Node-106            	1794.0      	0.0         	                	;
 Node-107            	1788.0      	0.007407407 	                	;
 Node-109            	1845.0      	0.0         	                	;
 Node-110            	1842.0      	0.0         	                	;
 Node-111            	1840.0      	0.0         	                	;
 Node-112            	1839.0      	0.0         	                	;
 Node-113            	1839.0      	0.0         	                	;
 Node-116            	1846.0      	0.0         	                	;
 Node-117            	1843.0      	0.0         	                	;
 Node-118            	1841.0      	0.0         	                	;
 Node-119            	1839.0      	0.0         	                	;
 Node-186            	1955.0      	0.0         	                	;
 Node-122            	1946.0      	0.0         	                	;
 Node-123            	1939.0      	0.0         	                	;
 Node-124            	1938.0      	0.0         	                	;
 Node-125            	1938.0      	0.0         	                	;
 Node-126            	1936.0      	0.0         	                	;
 Node-127            	1927.0      	0.0         	                	;
 Node-128            	1918.0      	0.0         	                	;
 Node-129            	1917.0      	0.0         	                	;
 Node-130            	1911.0      	0.0         	                	;
 Node-131            	1904.0      	0.0         	                	;
 Node-132            	1895.0      	0.0         	                	;
 Node-133            	1887.0      	0.0         	                	;
 Node-134            	1878.0      	0.0         	                	;
 Node-135            	1872.0      	0.0         	                	;
 Node-172            	1868.0      	0.0         	                	;
 Node-137            	1864.0      	0.0         	                	;
 Node-138            	1859.0      	0.0         	                	;
 Node-139            	1855.0      	0.0         	                	;
 Node-140            	1852.0      	0.0         	                	;
 Node-141            	1852.0      	0.0         	                	;
 Node-142            	1851.0      	0.0         	                	;
 Node-143            	1849.0      	0.0         	                	;
 Node-144            	1846.0      	0.0         	                	;
 Node-145            	1844.0      	0.0         	                	;
 Node-146            	1841.0      	0.0         	                	;
 Node-147            	1838.0      	0.0         	                	;
 Node-148            	1835.0      	0.0         	                	;
 Node-151            	1837.0      	0.0         	                	;
 Node-152            	1826.0      	0.0         	                	;
 Node-153            	1817.0      	0.0         	                	;
 Node-154            	1814.0      	0.0         	                	;
 Node-155            	1813.0      	0.0         	                	;
 Node-156            	1813.0      	0.0         	                	;
 Node-157            	1814.0      	0.0         	                	;
 Node-158            	1815.0      	0.0         	                	;
 Node-159            	1820.0      	0.0         	                	;
 Node-160            	1820.0      	0.0         	                	;
 Node-161            	1823.0      	0.0         	                	;
 Node-162            	1827.0      	0.0         	                	;
 Node-165            	1956.0      	0.0         	                	;
 Node-166            	1955.0      	0.0         	                	;
 Node-169            	1956.0      	0.0         	                	;
 Node-170            	1955.0      	0.0         	                	;
 Node-173            	1867.0      	0.324074074 	                	;
 Node-175            	1830.0      	0.0         	                	;
 Node-177            	1985.0      	0.0         	                	;
 Node-178            	1972.0      	0.0         	                	;
 Node-179            	1963.0      	0.0         	                	;
 Node-180            	1956.0      	0.0         	                	;
 Node-181            	1955.0      	0.0         	                	;
 Node-184            	1962.0      	0.0         	                	;
 Node-185            	1955.0      	0.0         	                	;

[RESERVOIRS]
;ID                  	Head        	Pattern         
 Spring-5347         	1851        	                	;
 Spring-5348         	1845        	                	;
 Spring-5349         	1969        	                	;
 Spring-5353         	1851        	                	;
 Spring-5356         	1963        	                	;
 Spring-5357         	1963        	                	;
 Spring-5358         	1851        	                	;
 Spring-5359         	1975        	                	;
 Spring-5360         	1999        	                	;
 Spring-5365         	1851        	                	;
 Spring-5366         	1975        	                	;
 Spring-5367         	1999        	                	;
 Spring-5354         	1845        	                	;
 Spring-5355         	1969        	                	;

[TANKS]
;ID                  	Elevation   	InitLevel   	MinLevel    	MaxLevel    	Diameter    	MinVol      	VolCurve
 Tank-19009          	1803        	0.75        	0.15000000000000002     	1.5         	5           	3.0         	                	;
 Tank-19039          	1782        	0.75        	0.15000000000000002     	1.5         	5           	10.0        	                	;
 Tank-19040          	1785        	0.75        	0.15000000000000002     	1.5         	5           	30.0        	                	;

[PIPES]
;ID                  	Node1               	Node2               	Length      	Diameter    	Roughness   	MinorLoss   	Status
 Pipe-110128-0       	Spring-5365         	Node-2              	7.762       	40          	100         	0           	Open  	;
 Pipe-110128-1       	Node-2              	Node-3              	31.239      	40          	100         	0           	Open  	;
 Pipe-110128-2       	Node-3              	Node-150            	4.087       	40          	100         	0           	Open  	;
 Pipe-110129-0       	Tank-19009          	Node-6              	24.118      	25          	100         	0           	Open  	;
 Pipe-110129-1       	Node-6              	Node-7              	22.233      	25          	100         	0           	Open  	;
 Pipe-110130-0       	Tank-19040          	Node-9              	8.013       	32          	100         	0           	Open  	;
 Pipe-110130-1       	Node-9              	Node-10             	15.001      	32          	100         	0           	Open  	;
 Pipe-110130-2       	Node-10             	Tank-19039          	8.872       	32          	100         	0           	Open  	;
 Pipe-110130-3       	Tank-19039          	Node-12             	4.688       	32          	100         	0           	Open  	;
 Pipe-110131-0       	Tank-19040          	Node-14             	14.848      	40          	100         	0           	Open  	;
 Pipe-110131-1       	Node-14             	Node-15             	17.002      	40          	100         	0           	Open  	;
 Pipe-110131-2       	Node-15             	Node-16             	20.136      	40          	100         	0           	Open  	;
 Pipe-110131-3       	Node-16             	Node-17             	19.176      	40          	100         	0           	Open  	;
 Pipe-110131-4       	Node-17             	Node-18             	23.543      	40          	100         	0           	Open  	;
 Pipe-110131-5       	Node-18             	Node-19             	26.859      	40          	100         	0           	Open  	;
 Pipe-110131-6       	Node-19             	Node-20             	44.088      	40          	100         	0           	Open  	;
 Pipe-110131-7       	Node-20             	Node-21             	58.731      	40          	100         	0           	Open  	;
 Pipe-110131-8       	Node-21             	Node-22             	40.261      	40          	100         	0           	Open  	;
 Pipe-110131-9       	Node-22             	Node-23             	55.881      	40          	100         	0           	Open  	;
 Pipe-110131-10      	Node-23             	Node-24             	68.06       	40          	100         	0           	Open  	;
 Pipe-110131-11      	Node-24             	Node-25             	72.494      	40          	100         	0           	Open  	;
 Pipe-110131-12      	Node-25             	Node-26             	75.02       	40          	100         	0           	Open  	;
 Pipe-110131-13      	Node-26             	Node-27             	73.427      	40          	100         	0           	Open  	;
 Pipe-110131-14      	Node-27             	Node-28             	85.088      	40          	100         	0           	Open  	;
 Pipe-110131-15      	Node-28             	Node-29             	78.464      	40          	100         	0           	Open  	;
 Pipe-110131-16      	Node-29             	Node-30             	56.076      	40          	100         	0           	Open  	;
 Pipe-110131-17      	Node-30             	Node-31             	56.651      	40          	100         	0           	Open  	;
 Pipe-110131-18      	Node-31             	Node-32             	30.988      	40          	100         	0           	Open  	;
 Pipe-110131-19      	Node-32             	Node-33             	29.496      	40          	100         	0           	Open  	;
 Pipe-110131-20      	Node-33             	Node-34             	22.252      	40          	100         	0           	Open  	;
 Pipe-110131-21      	Node-34             	Node-35             	23.557      	40          	100         	0           	Open  	;
 Pipe-110131-22      	Node-35             	Node-36             	22.272      	40          	100         	0           	Open  	;
 Pipe-110131-23      	Node-36             	Node-37             	20.344      	40          	100         	0           	Open  	;
 Pipe-110131-24      	Node-37             	Node-38             	56.421      	40          	100         	0           	Open  	;
 Pipe-110131-25      	Node-38             	Node-39             	53.606      	40          	100         	0           	Open  	;
 Pipe-110131-26      	Node-39             	Node-40             	41.991      	40          	100         	0           	Open  	;
 Pipe-110131-27      	Node-40             	Node-41             	31.641      	40          	100         	0           	Open  	;
 Pipe-110131-28      	Node-41             	Node-42             	36.621      	40          	100         	0           	Open  	;
 Pipe-110131-29      	Node-42             	Node-43             	69.328      	40          	100         	0           	Open  	;
 Pipe-110131-30      	Node-43             	Node-44             	66.899      	40          	100         	0           	Open  	;
 Pipe-110131-31      	Node-44             	Node-45             	71.258      	40          	100         	0           	Open  	;
 Pipe-110131-32      	Node-45             	Node-46             	83.193      	40          	100         	0           	Open  	;
 Pipe-110131-33      	Node-46             	Node-47             	72.992      	40          	100         	0           	Open  	;
 Pipe-110131-34      	Node-47             	Node-48             	73.703      	40          	100         	0           	Open  	;
 Pipe-110131-35      	Node-48             	Node-163            	36.433      	40          	100         	0           	Open  	;
 Pipe-110132-0       	Tank-19040          	Node-51             	7.575       	40          	100         	0           	Open  	;
 Pipe-110132-1       	Node-51             	Node-52             	16.77       	40          	100         	0           	Open  	;
 Pipe-110132-2       	Node-52             	Node-53             	28.135      	40          	100         	0           	Open  	;
 Pipe-110132-3       	Node-53             	Node-54             	37.51       	40          	100         	0           	Open  	;
 Pipe-110132-4       	Node-54             	Node-55             	41.529      	40          	100         	0           	Open  	;
 Pipe-110132-5       	Node-55             	Node-56             	40.404      	40          	100         	0           	Open  	;
 Pipe-110132-6       	Node-56             	Node-57             	37.489      	40          	100         	0           	Open  	;
 Pipe-110132-7       	Node-57             	Node-58             	35.102      	40          	100         	0           	Open  	;
 Pipe-110132-8       	Node-58             	Node-59             	29.28       	40          	100         	0           	Open  	;
 Pipe-110132-9       	Node-59             	Node-60             	43.129      	40          	100         	0           	Open  	;
 Pipe-110133-0       	Node-61             	Node-62             	12.3        	25          	100         	0           	Open  	;
 Pipe-110133-1       	Node-62             	Node-63             	13.377      	25          	100         	0           	Open  	;
 Pipe-110133-3       	Node-64             	Node-65             	23.533      	25          	100         	0           	Open  	;
 Pipe-110133-4       	Node-65             	Node-66             	24.421      	25          	100         	0           	Open  	;
 Pipe-110133-5       	Node-66             	Node-67             	26.684      	25          	100         	0           	Open  	;
 Pipe-110133-6       	Node-67             	Node-68             	29.18       	25          	100         	0           	Open  	;
 Pipe-110133-7       	Node-68             	Node-96             	30.299      	25          	100         	0           	Open  	;
 Pipe-110134-0       	Node-174            	Node-71             	29.098      	50          	100         	0           	Open  	;
 Pipe-110134-1       	Node-71             	Node-72             	35.943      	50          	100         	0           	Open  	;
 Pipe-110134-2       	Node-72             	Node-163            	29.005      	50          	100         	0           	Open  	;
 Pipe-110135-0       	Node-163            	Node-75             	36.521      	32          	100         	0           	Open  	;
 Pipe-110135-1       	Node-75             	Node-76             	73.649      	32          	100         	0           	Open  	;
 Pipe-110135-2       	Node-76             	Node-77             	73.023      	32          	100         	0           	Open  	;
 Pipe-110135-3       	Node-77             	Node-78             	83.133      	32          	100         	0           	Open  	;
 Pipe-110135-4       	Node-78             	Node-79             	70.536      	32          	100         	0           	Open  	;
 Pipe-110135-5       	Node-79             	Node-80             	66.687      	32          	100         	0           	Open  	;
 Pipe-110135-6       	Node-80             	Node-81             	69.161      	32          	100         	0           	Open  	;
 Pipe-110135-7       	Node-81             	Node-82             	36.229      	32          	100         	0           	Open  	;
 Pipe-110135-8       	Node-82             	Node-83             	31.623      	32          	100         	0           	Open  	;
 Pipe-110135-9       	Node-83             	Node-84             	41.873      	32          	100         	0           	Open  	;
 Pipe-110135-10      	Node-84             	Node-85             	53.54       	32          	100         	0           	Open  	;
 Pipe-110135-11      	Node-85             	Node-86             	55.56       	32          	100         	0           	Open  	;
 Pipe-110135-12      	Node-86             	Node-87             	55.104      	32          	100         	0           	Open  	;
 Pipe-110135-13      	Node-87             	Node-88             	48.263      	32          	100         	0           	Open  	;
 Pipe-110135-14      	Node-88             	Node-89             	46.843      	32          	100         	0           	Open  	;
 Pipe-110135-15      	Node-89             	Node-90             	50.904      	32          	100         	0           	Open  	;
 Pipe-110135-16      	Node-90             	Node-91             	51.707      	32          	100         	0           	Open  	;
 Pipe-110135-17      	Node-91             	Node-92             	44.531      	32          	100         	0           	Open  	;
 Pipe-110135-18      	Node-92             	Node-93             	33.146      	32          	100         	0           	Open  	;
 Pipe-110135-19      	Node-93             	Node-94             	17.245      	32          	100         	0           	Open  	;
 Pipe-110135-20      	Node-94             	Node-95             	23.209      	32          	100         	0           	Open  	;
 Pipe-110135-21      	Node-95             	Node-96             	29.598      	32          	100         	0           	Open  	;
 Pipe-110135-22      	Node-96             	Node-97             	30.915      	32          	100         	0           	Open  	;
 Pipe-110135-23      	Node-97             	Node-98             	28.601      	32          	100         	0           	Open  	;
 Pipe-110135-24      	Node-98             	Node-99             	18.272      	32          	100         	0           	Open  	;
 Pipe-110135-25      	Node-99             	Node-100            	19.585      	32          	100         	0           	Open  	;
 Pipe-110135-26      	Node-100            	Node-101            	29.489      	32          	100         	0           	Open  	;
 Pipe-110135-27      	Node-101            	Node-102            	21.295      	32          	100         	0           	Open  	;
 Pipe-110135-28      	Node-102            	Tank-19009          	16.808      	32          	100         	0           	Open  	;
 Pipe-110136-0       	Tank-19009          	Node-105            	27.19       	25          	100         	0           	Open  	;
 Pipe-110136-1       	Node-105            	Node-106            	39.819      	25          	100         	0           	Open  	;
 Pipe-110136-2       	Node-106            	Node-107            	29.024      	25          	100         	0           	Open  	;
 Pipe-110137-0       	Spring-5354         	Node-109            	7.72        	32          	100         	0           	Open  	;
 Pipe-110137-1       	Node-109            	Node-110            	11.526      	32          	100         	0           	Open  	;
 Pipe-110137-2       	Node-110            	Node-111            	13.883      	32          	100         	0           	Open  	;
 Pipe-110137-3       	Node-111            	Node-112            	13.047      	32          	100         	0           	Open  	;
 Pipe-110137-4       	Node-112            	Node-113            	6.994       	32          	100         	0           	Open  	;
 Pipe-110137-5       	Node-113            	Node-150            	4.063       	32          	100         	0           	Open  	;
 Pipe-110138-0       	Spring-5353         	Node-116            	7.483       	32          	100         	0           	Open  	;
 Pipe-110138-1       	Node-116            	Node-117            	13.629      	32          	100         	0           	Open  	;
 Pipe-110138-2       	Node-117            	Node-118            	12.438      	32          	100         	0           	Open  	;
 Pipe-110138-3       	Node-118            	Node-119            	7.332       	32          	100         	0           	Open  	;
 Pipe-110138-4       	Node-119            	Node-150            	4.102       	32          	100         	0           	Open  	;
 Pipe-110139-0       	Node-186            	Node-122            	29.513      	50          	100         	0           	Open  	;
 Pipe-110139-1       	Node-122            	Node-123            	53.452      	50          	100         	0           	Open  	;
 Pipe-110139-2       	Node-123            	Node-124            	47.406      	50          	100         	0           	Open  	;
 Pipe-110139-3       	Node-124            	Node-125            	50.599      	50          	100         	0           	Open  	;
 Pipe-110139-4       	Node-125            	Node-126            	69.948      	50          	100         	0           	Open  	;
 Pipe-110139-5       	Node-126            	Node-127            	58.894      	50          	100         	0           	Open  	;
 Pipe-110139-6       	Node-127            	Node-128            	49.384      	50          	100         	0           	Open  	;
 Pipe-110139-7       	Node-128            	Node-129            	43.1        	50          	100         	0           	Open  	;
 Pipe-110139-8       	Node-129            	Node-130            	41.166      	50          	100         	0           	Open  	;
 Pipe-110139-9       	Node-130            	Node-131            	44.03       	50          	100         	0           	Open  	;
 Pipe-110139-10      	Node-131            	Node-132            	39.68       	50          	100         	0           	Open  	;
 Pipe-110139-11      	Node-132            	Node-133            	40.34       	50          	100         	0           	Open  	;
 Pipe-110139-12      	Node-133            	Node-134            	43.932      	50          	100         	0           	Open  	;
 Pipe-110139-13      	Node-134            	Node-135            	44.14       	50          	100         	0           	Open  	;
 Pipe-110139-14      	Node-135            	Node-172            	30.43       	50          	100         	0           	Open  	;
 Pipe-110139-15      	Node-172            	Node-137            	45.378      	50          	100         	0           	Open  	;
 Pipe-110139-16      	Node-137            	Node-138            	46.189      	50          	100         	0           	Open  	;
 Pipe-110139-17      	Node-138            	Node-139            	46.833      	50          	100         	0           	Open  	;
 Pipe-110139-18      	Node-139            	Node-140            	40.652      	50          	100         	0           	Open  	;
 Pipe-110139-19      	Node-140            	Node-141            	15.685      	50          	100         	0           	Open  	;
 Pipe-110139-20      	Node-141            	Node-142            	14.73       	50          	100         	0           	Open  	;
 Pipe-110139-21      	Node-142            	Node-143            	55.677      	50          	100         	0           	Open  	;
 Pipe-110139-22      	Node-143            	Node-144            	49.895      	50          	100         	0           	Open  	;
 Pipe-110139-23      	Node-144            	Node-145            	42.151      	50          	100         	0           	Open  	;
 Pipe-110139-24      	Node-145            	Node-146            	39.443      	50          	100         	0           	Open  	;
 Pipe-110139-25      	Node-146            	Node-147            	48.576      	50          	100         	0           	Open  	;
 Pipe-110139-26      	Node-147            	Node-148            	44.328      	50          	100         	0           	Open  	;
 Pipe-110139-27      	Node-148            	Node-174            	36.546      	50          	100         	0           	Open  	;
 Pipe-110140-0       	Node-150            	Node-151            	32.881      	40          	100         	0           	Open  	;
 Pipe-110140-1       	Node-151            	Node-152            	59.449      	40          	100         	0           	Open  	;
 Pipe-110140-2       	Node-152            	Node-153            	63.985      	40          	100         	0           	Open  	;
 Pipe-110140-3       	Node-153            	Node-154            	67.166      	40          	100         	0           	Open  	;
 Pipe-110140-4       	Node-154            	Node-155            	65.187      	40          	100         	0           	Open  	;
 Pipe-110140-5       	Node-155            	Node-156            	77.851      	40          	100         	0           	Open  	;