[TITLE]
20424 ISAR-RUBONA WSS in Huye District

[JUNCTIONS]
;ID                  	Elev        	Demand      	Pattern         
 Node-2              	1674.0      	0.016666667 	                	;
 Node-67             	1683.0      	0.0         	                	;
 Node-4              	1685.0      	0.0         	                	;
 Node-5              	1688.0      	0.0         	                	;
 Node-12             	1688.0      	0.0         	                	;
 Node-378            	1690.0      	0.0         	                	;
 Node-8              	1691.0      	0.0         	                	;
 Node-409            	1693.0      	0.0         	                	;
 Node-10             	1696.0      	0.0         	                	;
 Node-362            	1696.0      	0.0         	                	;
 Node-13             	1688.0      	0.005555556 	                	;
 Node-54             	1696.0      	0.0         	                	;
 Node-15             	1698.0      	0.0         	                	;
 Node-16             	1698.0      	0.003703704 	                	;
 Node-481            	1689.0      	0.0         	                	;
 Node-18             	1690.0      	0.0         	                	;
 Node-19             	1690.0      	0.00462963  	                	;
 Node-478            	1687.0      	0.0         	                	;
 Node-21             	1687.0      	0.0         	                	;
 Node-22             	1688.0      	0.00462963  	                	;
 Node-474            	1687.0      	0.0         	                	;
 Node-24             	1687.0      	0.0         	                	;
 Node-25             	1687.0      	0.0         	                	;
 Node-26             	1687.0      	0.000925926 	                	;
 Node-79             	1691.0      	0.0         	                	;
 Node-28             	1692.0      	0.0         	                	;
 Node-29             	1693.0      	0.003703704 	                	;
 Node-49             	1691.0      	0.0         	                	;
 Node-31             	1693.0      	0.0         	                	;
 Node-32             	1693.0      	0.003703704 	                	;
 Node-51             	1693.0      	0.0         	                	;
 Node-34             	1695.0      	0.0         	                	;
 Node-35             	1695.0      	0.002777778 	                	;
 Node-52             	1695.0      	0.0         	                	;
 Node-37             	1697.0      	0.0         	                	;
 Node-38             	1696.0      	0.002777778 	                	;
 Node-348            	1692.0      	0.0         	                	;
 Node-327            	1691.0      	0.0         	                	;
 Node-333            	1692.0      	0.0         	                	;
 Node-42             	1691.0      	0.00462963  	                	;
 Node-43             	1692.0      	0.001851852 	                	;
 Node-44             	1691.0      	0.0         	                	;
 Node-45             	1691.0      	0.0         	                	;
 Node-46             	1690.0      	0.0         	                	;
 Node-47             	1690.0      	0.0         	                	;
 Node-48             	1691.0      	0.0         	                	;
 Node-50             	1693.0      	0.0         	                	;
 Node-53             	1695.0      	0.0         	                	;
 Node-55             	1697.0      	0.0         	                	;
 Node-355            	1698.0      	0.0         	                	;
 Node-57             	1698.0      	0.0         	                	;
 Node-517            	1698.0      	0.0         	                	;
 Node-463            	1683.0      	0.0         	                	;
 Node-60             	1683.0      	0.0         	                	;
 Node-61             	1683.0      	0.0         	                	;
 Node-62             	1684.0      	0.0         	                	;
 Node-63             	1683.0      	0.0         	                	;
 Node-64             	1682.0      	0.0         	                	;
 Node-65             	1683.0      	0.0         	                	;
 Node-508            	1684.0      	0.0         	                	;
 Node-68             	1683.0      	0.0         	                	;
 Node-69             	1682.0      	0.0         	                	;
 Node-70             	1682.0      	0.0         	                	;
 Node-71             	1682.0      	0.0         	                	;
 Node-72             	1684.0      	0.0         	                	;
 Node-73             	1685.0      	0.0         	                	;
 Node-74             	1686.0      	0.0         	                	;
 Node-75             	1688.0      	0.0         	                	;
 Node-76             	1689.0      	0.0         	                	;
 Node-77             	1689.0      	0.0         	                	;
 Node-78             	1690.0      	0.0         	                	;
 Node-80             	1691.0      	0.0         	                	;
 Node-81             	1691.0      	0.0         	                	;
 Node-431            	1690.0      	0.0         	                	;
 Node-83             	1691.0      	0.0         	                	;
 Node-84             	1690.0      	0.0         	                	;
 Node-85             	1685.0      	0.0         	                	;
 Node-86             	1687.0      	0.0         	                	;
 Node-87             	1688.0      	0.0         	                	;
 Node-88             	1689.0      	0.0         	                	;
 Node-89             	1689.0      	0.0         	                	;
 Node-90             	1689.0      	0.0         	                	;
 Node-91             	1688.0      	0.0         	                	;
 Node-92             	1688.0      	0.0         	                	;
 Node-93             	1687.0      	0.0         	                	;
 Node-94             	1686.0      	0.0         	                	;
 Node-95             	1685.0      	0.0         	                	;
 Node-96             	1685.0      	0.0         	                	;
 Node-97             	1685.0      	0.0         	                	;
 Node-98             	1685.0      	0.0         	                	;
 Node-503            	1685.0      	0.0         	                	;
 Node-100            	1684.0      	0.0         	                	;
 Node-101            	1683.0      	0.0         	                	;
 Node-102            	1682.0      	0.0         	                	;
 Node-103            	1682.0      	0.0         	                	;
 Node-462            	1683.0      	0.0         	                	;
 Node-350            	1692.0      	0.0         	                	;
 Node-106            	1692.0      	0.0         	                	;
 Node-107            	1692.0      	0.00462963  	                	;
 Node-109            	1675.0      	0.0         	                	;
 Node-110            	1675.0      	0.0         	                	;
 Node-111            	1675.0      	0.0         	                	;
 Node-112            	1676.0      	0.0         	                	;
 Node-113            	1676.0      	0.0         	                	;
 Node-114            	1676.0      	0.0         	                	;
 Node-115            	1676.0      	0.0         	                	;
 Node-116            	1676.0      	0.0         	                	;
 Node-117            	1676.0      	0.0         	                	;
 Node-118            	1676.0      	0.0         	                	;
 Node-119            	1679.0      	0.0         	                	;
 Node-120            	1682.0      	0.0         	                	;
 Node-121            	1682.0      	0.0         	                	;
 Node-122            	1682.0      	0.0         	                	;
 Node-123            	1683.0      	0.0         	                	;
 Node-124            	1682.0      	0.0         	                	;
 Node-125            	1682.0      	0.0         	                	;
 Node-126            	1682.0      	0.0         	                	;
 Node-127            	1681.0      	0.0         	                	;
 Node-128            	1680.0      	0.0         	                	;
 Node-129            	1679.0      	0.0         	                	;
 Node-130            	1679.0      	0.0         	                	;
 Node-131            	1678.0      	0.0         	                	;
 Node-132            	1677.0      	0.0         	                	;
 Node-133            	1677.0      	0.0         	                	;
 Node-134            	1677.0      	0.0         	                	;
 Node-135            	1677.0      	0.0         	                	;
 Node-136            	1678.0      	0.0         	                	;
 Node-137            	1681.0      	0.0         	                	;
 Node-469            	1686.0      	0.0         	                	;
 Node-139            	1676.0      	0.064814815 	                	;
 Node-592            	1675.0      	0.0         	                	;
 Node-176            	1685.0      	0.0         	                	;
 Node-142            	1686.0      	0.003703704 	                	;
 Node-177            	1687.0      	0.0         	                	;
 Node-144            	1689.0      	0.002777778 	                	;
 Node-178            	1691.0      	0.0         	                	;
 Node-146            	1691.0      	0.000925926 	                	;
 Node-181            	1699.0      	0.0         	                	;
 Node-148            	1699.0      	0.001851852 	                	;
 Node-186            	1682.0      	0.0         	                	;
 Node-151            	1683.0      	0.0         	                	;
 Node-188            	1683.0      	0.0         	                	;
 Node-153            	1685.0      	0.0         	                	;
 Node-154            	1687.0      	0.0         	                	;
 Node-155            	1689.0      	0.0         	                	;
 Node-321            	1691.0      	0.0         	                	;
 Node-157            	1695.0      	0.0         	                	;
 Node-158            	1696.0      	0.0         	                	;
 Node-159            	1698.0      	0.0         	                	;
 Node-160            	1699.0      	0.0         	                	;
 Node-161            	1700.0      	0.0         	                	;
 Node-162            	1702.0      	0.0         	                	;
 Node-163            	1703.0      	0.0         	                	;
 Node-164            	1704.0      	0.0         	                	;
 Node-312            	1704.0      	0.0         	                	;
 Node-166            	1706.0      	0.0         	                	;
 Node-167            	1708.0      	0.0         	                	;
 Node-309            	1709.0      	0.0         	                	;
 Node-169            	1711.0      	0.0         	                	;
 Node-172            	1713.0      	0.0         	                	;
 Node-184            	1684.0      	0.0         	                	;
 Node-179            	1692.0      	0.0         	                	;
 Node-180            	1696.0      	0.0         	                	;
 Node-182            	1701.0      	0.0         	                	;
 Node-183            	1702.0      	0.002777778 	                	;
 Node-185            	1685.0      	0.001851852 	                	;
 Node-187            	1682.0      	0.00462963  	                	;
 Node-195            	1682.0      	0.0         	                	;
 Node-193            	1682.0      	0.0         	                	;
 Node-191            	1682.0      	0.0         	                	;
 Node-192            	1682.0      	0.000925926 	                	;
 Node-194            	1682.0      	0.003703704 	                	;
 Node-196            	1682.0      	0.00462963  	                	;
 Node-200            	1651.0      	0.0         	                	;
 Node-199            	1650.0      	0.231481481 	                	;
 Node-201            	1650.0      	0.0         	                	;
 Node-202            	1650.0      	0.0         	                	;
 Node-203            	1649.0      	0.0         	                	;
 Node-204            	1649.0      	0.231481481 	                	;
 Node-206            	1682.0      	0.0         	                	;
 Node-207            	1681.0      	0.0         	                	;
 Node-208            	1679.0      	0.0         	                	;
 Node-209            	1678.0      	0.0         	                	;
 Node-210            	1676.0      	0.0         	                	;
 Node-211            	1672.0      	0.0         	                	;
 Node-212            	1667.0      	0.0         	                	;
 Node-213            	1663.0      	0.0         	                	;
 Node-214            	1658.0      	0.0         	                	;
 Node-215            	1655.0      	0.0         	                	;
 Node-216            	1654.0      	0.0         	                	;
 Node-217            	1650.0      	0.0         	                	;
 Node-218            	1650.0      	0.0         	                	;
 Node-219            	1649.0      	0.0         	                	;
 Node-220            	1649.0      	0.0         	                	;
 Node-221            	1650.0      	0.0         	                	;
 Node-222            	1650.0      	0.0         	                	;
 Node-223            	1650.0      	0.0         	                	;
 Node-224            	1650.0      	0.0         	                	;
 Node-225            	1651.0      	0.0         	                	;
 Node-284            	1613.0      	0.0         	                	;
 Node-228            	1616.0      	0.0         	                	;
 Node-229            	1620.0      	0.0         	                	;
 Node-230            	1624.0      	0.0         	                	;
 Node-231            	1629.0      	0.0         	                	;
 Node-232            	1631.0      	0.0         	                	;
 Node-233            	1634.0      	0.0         	                	;
 Node-234            	1639.0      	0.0         	                	;
 Node-235            	1647.0      	0.0         	                	;
 Node-236            	1648.0      	0.0         	                	;
 Node-237            	1659.0      	0.0         	                	;
 Node-238            	1666.0      	0.0         	                	;
 Node-239            	1671.0      	0.0         	                	;
 Node-240            	1673.0      	0.0         	                	;
 Node-241            	1676.0      	0.0         	                	;
 Node-242            	1678.0      	0.0         	                	;
 Node-243            	1681.0      	0.0         	                	;
 Node-244            	1681.0      	0.0         	                	;
 Node-247            	1606.0      	0.0         	                	;
 Node-248            	1603.0      	0.0         	                	;
 Node-272            	1600.0      	0.0         	                	;
 Node-267            	1598.0      	0.0         	                	;
 Node-252            	1598.0      	0.0         	                	;
 Node-253            	1598.0      	0.0         	                	;
 Node-254            	1600.0      	0.0         	                	;
 Node-255            	1597.0      	0.0         	                	;
 Node-256            	1598.0      	0.0         	                	;
 Node-257            	1599.0      	0.0         	                	;
 Node-258            	1599.0      	0.0         	                	;
 Node-259            	1600.0      	0.0         	                	;
 Node-260            	1600.0      	0.0         	                	;
 Node-261            	1601.0      	0.0         	                	;
 Node-262            	1602.0      	0.0         	                	;
 Node-263            	1603.0      	0.0         	                	;
 Node-264            	1603.0      	0.0         	                	;
 Node-265            	1603.0      	0.0         	                	;
 Node-302            	1604.0      	0.0         	                	;
 Node-268            	1598.0      	0.0         	                	;
 Node-269            	1598.0      	0.0         	                	;
 Node-270            	1600.0      	0.0         	                	;
 Node-271            	1599.0      	0.0         	                	;
 Node-274            	1598.0      	0.0         	                	;
 Node-275            	1596.0      	0.0         	                	;
 Node-276            	1597.0      	0.0         	                	;
 Node-277            	1597.0      	0.0         	                	;
 Node-278            	1597.0      	0.0         	                	;
 Node-279            	1597.0      	0.0         	                	;
 Node-280            	1599.0      	0.0         	                	;
 Node-281            	1599.0      	0.0         	                	;
 Node-282            	1602.0      	0.0         	                	;
 Node-283            	1606.0      	0.0         	                	;
 Node-286            	1610.0      	0.0         	                	;
 Node-288            	1610.0      	0.0         	                	;
 Node-289            	1606.0      	0.0         	                	;
 Node-290            	1605.0      	0.0         	                	;
 Node-291            	1604.0      	0.0         	                	;
 Node-305            	1608.0      	0.0         	                	;
 Node-294            	1606.0      	0.0         	                	;
 Node-295            	1605.0      	0.0         	                	;
 Node-296            	1604.0      	0.0         	                	;
 Node-308            	1607.0      	0.0         	                	;
 Node-299            	1607.0      	0.0         	                	;
 Node-300            	1605.0      	0.0         	                	;
 Node-301            	1604.0      	0.0         	                	;
 Node-304            	1608.0      	0.0         	                	;
 Node-307            	1612.0      	0.0         	                	;
 Node-310            	1710.0      	0.0         	                	;
 Node-311            	1709.0      	0.005555556 	                	;
 Node-313            	1704.0      	0.0         	                	;
 Node-314            	1704.0      	0.002777778 	                	;
 Node-590            	1675.0      	0.0         	                	;
 Node-316            	1675.0      	0.0         	                	;
 Node-317            	1673.0      	0.0         	                	;
 Node-318            	1673.0      	0.0         	                	;
 Node-319            	1670.0      	0.0         	                	;
 Node-320            	1670.0      	0.055555556 	                	;
 Node-322            	1686.0      	0.0         	                	;
 Node-323            	1682.0      	0.0         	                	;
 Node-324            	1680.0      	0.0         	                	;
 Node-325            	1679.0      	0.0         	                	;
 Node-326            	1678.0      	0.009259259 	                	;
 Node-328            	1690.0      	0.0         	                	;
 Node-329            	1691.0      	0.0         	                	;
 Node-330            	1691.0      	0.0         	                	;
 Node-331            	1691.0      	0.0         	                	;
 Node-332            	1691.0      	0.003703704 	                	;
 Node-334            	1692.0      	0.0         	                	;
 Node-335            	1692.0      	0.0         	                	;
 Node-336            	1692.0      	0.0         	                	;
 Node-337            	1691.0      	0.00462963  	                	;
 Node-339            	1691.0      	0.0         	                	;
 Node-340            	1692.0      	0.0         	                	;
 Node-485            	1692.0      	0.0         	                	;
 Node-345            	1689.0      	0.0         	                	;
 Node-344            	1688.0      	0.001851852 	                	;
 Node-346            	1687.0      	0.0         	                	;
 Node-349            	1692.0      	0.0         	                	;
 Node-366            	1693.0      	0.0         	                	;
 Node-352            	1694.0      	0.001851852 	                	;
 Node-363            	1694.0      	0.0         	                	;
 Node-354            	1696.0      	0.00462963  	                	;
 Node-356            	1700.0      	0.0         	                	;
 Node-357            	1700.0      	0.006481481 	                	;
 Node-359            	1688.0      	0.0         	                	;
 Node-360            	1690.0      	0.0         	                	;
 Node-364            	1694.0      	0.0         	                	;
 Node-365            	1694.0      	0.0         	                	;
 Node-367            	1693.0      	0.0         	                	;
 Node-390            	1692.0      	0.0         	                	;
 Node-369            	1692.0      	0.0         	                	;
 Node-370            	1691.0      	0.0         	                	;
 Node-386            	1691.0      	0.0         	                	;
 Node-372            	1691.0      	0.0         	                	;
 Node-376            	1691.0      	0.0         	                	;
 Node-374            	1691.0      	0.0         	                	;
 Node-375            	1691.0      	0.00462963  	                	;
 Node-377            	1692.0      	0.003703704 	                	;
 Node-392            	1689.0      	0.0         	                	;
 Node-380            	1689.0      	0.0         	                	;
 Node-388            	1688.0      	0.0         	                	;
 Node-382            	1688.0      	0.0         	                	;
 Node-383            	1688.0      	0.0         	                	;
 Node-384            	1688.0      	0.0         	                	;
 Node-385            	1688.0      	0.001851852 	                	;
 Node-387            	1692.0      	0.005555556 	                	;
 Node-389            	1689.0      	0.003703704 	                	;
 Node-391            	1692.0      	0.003703704 	                	;
 Node-393            	1690.0      	0.001851852 	                	;
 Node-405            	1690.0      	0.0         	                	;
 Node-395            	1691.0      	0.0         	                	;
 Node-396            	1691.0      	0.003703704 	                	;
 Node-397            	1688.0      	0.001851852 	                	;
 Node-398            	1688.0      	0.0         	                	;
 Node-399            	1688.0      	0.0         	                	;
 Node-422            	1688.0      	0.0         	                	;
 Node-401            	1688.0      	0.0         	                	;
 Node-402            	1689.0      	0.0         	                	;
 Node-416            	1689.0      	0.0         	                	;
 Node-404            	1689.0      	0.0         	                	;
 Node-406            	1691.0      	0.0         	                	;
 Node-407            	1692.0      	0.0         	                	;
 Node-410            	1693.0      	0.0         	                	;
 Node-411            	1694.0      	0.0         	                	;
 Node-412            	1693.0      	0.005555556 	                	;
 Node-473            	1686.0      	0.0         	                	;
 Node-414            	1687.0      	0.0         	                	;
 Node-415            	1687.0      	0.000925926 	                	;
 Node-417            	1690.0      	0.0         	                	;
 Node-418            	1691.0      	0.006481481 	                	;
 Node-470            	1686.0      	0.0         	                	;
 Node-420            	1686.0      	0.0         	                	;
 Node-421            	1686.0      	0.002777778 	                	;
 Node-423            	1689.0      	0.0         	                	;
 Node-424            	1689.0      	0.003703704 	                	;
 Node-483            	1691.0      	0.0         	                	;
 Node-426            	1693.0      	0.023148148 	                	;
 Node-427            	1690.0      	0.0         	                	;
 Node-428            	1690.0      	0.0         	                	;
 Node-429            	1691.0      	0.0         	                	;
 Node-430            	1692.0      	0.003703704 	                	;
 Node-432            	1692.0      	0.0         	                	;
 Node-433            	1693.0      	0.001851852 	                	;
 Node-511            	1688.0      	0.0         	                	;
 Node-435            	1688.0      	0.0         	                	;
 Node-436            	1689.0      	0.003703704 	                	;
 Node-513            	1692.0      	0.0         	                	;
 Node-438            	1692.0      	0.0         	                	;
 Node-439            	1693.0      	0.001851852 	                	;
 Node-515            	1696.0      	0.0         	                	;
 Node-441            	1696.0      	0.0         	                	;
 Node-442            	1697.0      	0.003703704 	                	;
 Node-444            	1699.0      	0.0         	                	;
 Node-445            	1699.0      	0.001851852 	                	;
 Node-447            	1700.0      	0.0         	                	;
 Node-456            	1702.0      	0.0         	                	;
 Node-453            	1704.0      	0.0         	                	;
 Node-450            	1707.0      	0.0         	                	;
 Node-451            	1707.0      	0.0         	                	;
 Node-452            	1707.0      	0.002777778 	                	;
 Node-454            	1705.0      	0.0         	                	;
 Node-455            	1704.0      	0.001851852 	                	;
 Node-457            	1702.0      	0.0         	                	;
 Node-458            	1702.0      	0.002777778 	                	;
 Node-509            	1685.0      	0.0         	                	;
 Node-460            	1686.0      	0.0         	                	;
 Node-461            	1686.0      	0.005555556 	                	;
 Node-464            	1682.0      	0.0         	                	;
 Node-465            	1682.0      	0.0         	                	;
 Node-466            	1683.0      	0.0         	                	;
 Node-467            	1684.0      	0.0         	                	;
 Node-621            	1685.0      	0.0         	                	;
 Node-551            	1686.0      	0.0         	                	;
 Node-472            	1686.0      	0.0         	                	;
 Node-475            	1687.0      	0.0         	                	;
 Node-476            	1687.0      	0.0         	                	;
 Node-477            	1687.0      	0.0         	                	;
 Node-535            	1688.0      	0.0         	                	;
 Node-480            	1689.0      	0.0         	                	;
 Node-482            	1690.0      	0.0         	                	;
 Node-484            	1692.0      	0.0         	                	;
 Node-486            	1692.0      	0.023148148 	                	;
 Node-487            	1686.0      	0.0         	                	;
 Node-488            	1685.0      	0.0         	                	;
 Node-489            	1684.0      	0.0         	                	;
 Node-490            	1684.0      	0.0         	                	;
 Node-491            	1681.0      	0.0         	                	;
 Node-492            	1681.0      	0.0         	                	;
 Node-493            	1682.0      	0.0         	                	;
 Node-494            	1682.0      	0.0         	                	;
 Node-495            	1682.0      	0.0         	                	;
 Node-496            	1683.0      	0.0         	                	;
 Node-497            	1683.0      	0.0         	                	;
 Node-498            	1683.0      	0.0         	                	;
 Node-499            	1683.0      	0.0         	                	;
 Node-500            	1684.0      	0.0         	                	;
 Node-501            	1685.0      	0.0         	                	;
 Node-502            	1686.0      	0.0         	                	;
 Node-505            	1685.0      	0.0         	                	;
 Node-506            	1685.0      	0.0         	                	;
 Node-507            	1685.0      	0.001851852 	                	;
 Node-510            	1687.0      	0.0         	                	;
 Node-512            	1689.0      	0.0         	                	;
 Node-514            	1693.0      	0.0         	                	;
 Node-516            	1697.0      	0.0         	                	;
 Node-558            	1684.0      	0.0         	                	;
 Node-519            	1685.0      	0.003703704 	                	;
 Node-556            	1683.0      	0.0         	                	;
 Node-521            	1685.0      	0.003703704 	                	;
 Node-555            	1683.0      	0.0         	                	;
 Node-523            	1684.0      	0.0         	                	;
 Node-524            	1685.0      	0.002777778 	                	;
 Node-526            	1689.0      	0.0         	                	;
 Node-527            	1688.0      	0.0         	                	;
 Node-528            	1687.0      	0.0         	                	;
 Node-529            	1687.0      	0.0         	                	;
 Node-530            	1687.0      	0.0         	                	;
 Node-531            	1687.0      	0.0         	                	;
 Node-532            	1687.0      	0.0         	                	;
 Node-533            	1688.0      	0.0         	                	;
 Node-534            	1688.0      	0.0         	                	;
 Node-537            	1651.0      	0.0         	                	;
 Node-538            	1653.0      	0.0         	                	;
 Node-539            	1653.0      	0.0         	                	;
 Node-540            	1653.0      	0.0         	                	;
 Node-541            	1653.0      	0.0         	                	;
 Node-542            	1655.0      	0.0         	                	;