[TITLE]
20425 Rusuri-Rwamuginga(ESKiruhura) WSS in Huye District

[JUNCTIONS]
;ID                  	Elev        	Demand      	Pattern         
 Node-10             	1732.0      	0.0         	                	;
 Node-107            	1732.0      	0.0         	                	;
 Node-4              	1732.0      	0.0         	                	;
 Node-5              	1730.0      	0.0         	                	;
 Node-6              	1730.0      	0.0         	                	;
 Node-7              	1730.0      	0.0         	                	;
 Node-8              	1730.0      	0.0         	                	;
 Node-14             	1730.0      	0.0         	                	;
 Node-11             	1732.0      	0.0         	                	;
 Node-12             	1732.0      	0.37037037  	                	;
 Node-15             	1727.0      	0.0         	                	;
 Node-16             	1721.0      	0.0         	                	;
 Node-105            	1719.0      	0.0         	                	;
 Node-18             	1718.0      	0.0         	                	;
 Node-19             	1720.0      	0.0         	                	;
 Node-25             	1719.0      	0.0         	                	;
 Node-21             	1720.0      	0.0         	                	;
 Node-100            	1719.0      	0.0         	                	;
 Node-23             	1720.0      	0.0         	                	;
 Node-24             	1720.0      	0.486111111 	                	;
 Node-26             	1720.0      	0.0         	                	;
 Node-27             	1719.0      	0.0         	                	;
 Node-98             	1719.0      	0.0         	                	;
 Node-29             	1719.0      	0.296296296 	                	;
 Node-32             	1602.0      	0.0         	                	;
 Node-33             	1603.0      	0.0         	                	;
 Node-35             	1603.0      	0.0         	                	;
 Node-36             	1607.0      	0.0         	                	;
 Node-37             	1607.0      	0.0         	                	;
 Node-38             	1607.0      	0.0         	                	;
 Node-39             	1615.0      	0.0         	                	;
 Node-40             	1620.0      	0.0         	                	;
 Node-41             	1623.0      	0.0         	                	;
 Node-42             	1627.0      	0.0         	                	;
 Node-43             	1635.0      	0.0         	                	;
 Node-44             	1641.0      	0.0         	                	;
 Node-45             	1644.0      	0.0         	                	;
 Node-46             	1650.0      	0.0         	                	;
 Node-47             	1655.0      	0.0         	                	;
 Node-48             	1661.0      	0.0         	                	;
 Node-49             	1668.0      	0.0         	                	;
 Node-50             	1673.0      	0.0         	                	;
 Node-51             	1677.0      	0.0         	                	;
 Node-52             	1688.0      	0.0         	                	;
 Node-53             	1699.0      	0.0         	                	;
 Node-54             	1706.0      	0.0         	                	;
 Node-55             	1710.0      	0.0         	                	;
 Node-56             	1717.0      	0.0         	                	;
 Node-57             	1722.0      	0.0         	                	;
 Node-58             	1723.0      	0.0         	                	;
 Node-59             	1723.0      	0.0         	                	;
 Node-60             	1724.0      	0.0         	                	;
 Node-61             	1725.0      	0.0         	                	;
 Node-62             	1726.0      	0.0         	                	;
 Node-63             	1726.0      	0.0         	                	;
 Node-64             	1727.0      	0.0         	                	;
 Node-65             	1727.0      	0.0         	                	;
 Node-66             	1729.0      	0.0         	                	;
 Node-67             	1729.0      	0.0         	                	;
 Node-68             	1732.0      	0.0         	                	;
 Node-108            	1732.0      	0.0         	                	;
 Node-70             	1732.0      	0.0         	                	;
 Node-73             	1732.0      	0.0         	                	;
 Node-133            	1659.0      	0.0         	                	;
 Node-76             	1658.0      	0.003703704 	                	;
 Node-77             	1600.0      	0.138888889 	                	;
 Node-78             	1601.0      	0.0         	                	;
 Node-135            	1659.0      	0.0         	                	;
 Node-81             	1658.0      	0.005555556 	                	;
 Node-83             	1602.0      	0.0         	                	;
 Node-84             	1603.0      	0.0         	                	;
 Node-85             	1602.0      	0.0         	                	;
 Node-86             	1603.0      	0.0         	                	;
 Node-87             	1603.0      	0.0         	                	;
 Node-88             	1604.0      	0.0         	                	;
 Node-89             	1604.0      	0.0         	                	;
 Node-90             	1606.0      	0.0         	                	;
 Node-91             	1606.0      	0.0         	                	;
 Node-92             	1606.0      	0.0         	                	;
 Node-93             	1606.0      	0.0         	                	;
 Node-94             	1607.0      	0.0         	                	;
 Node-127            	1677.0      	0.0         	                	;
 Node-97             	1677.0      	0.003703704 	                	;
 Node-99             	1715.0      	0.022222222 	                	;
 Node-101            	1719.0      	0.0         	                	;
 Node-102            	1718.0      	0.0         	                	;
 Node-103            	1718.0      	0.0         	                	;
 Node-104            	1717.0      	1.156481481 	                	;
 Node-106            	1720.0      	0.009259259 	                	;
 Node-109            	1732.0      	0.0         	                	;
 Node-110            	1730.0      	0.0         	                	;
 Node-111            	1729.0      	0.0         	                	;
 Node-112            	1728.0      	0.0         	                	;
 Node-113            	1726.0      	0.0         	                	;
 Node-114            	1725.0      	0.0         	                	;
 Node-115            	1722.0      	0.0         	                	;
 Node-116            	1721.0      	0.0         	                	;
 Node-117            	1715.0      	0.0         	                	;
 Node-118            	1712.0      	0.0         	                	;
 Node-119            	1711.0      	0.0         	                	;
 Node-120            	1708.0      	0.0         	                	;
 Node-121            	1705.0      	0.0         	                	;
 Node-122            	1703.0      	0.0         	                	;
 Node-123            	1698.0      	0.0         	                	;
 Node-124            	1695.0      	0.0         	                	;
 Node-125            	1688.0      	0.0         	                	;
 Node-126            	1685.0      	0.0         	                	;
 Node-128            	1674.0      	0.0         	                	;
 Node-129            	1668.0      	0.0         	                	;
 Node-130            	1664.0      	0.0         	                	;
 Node-131            	1662.0      	0.0         	                	;
 Node-132            	1661.0      	0.0         	                	;
 Node-134            	1659.0      	0.0         	                	;

[RESERVOIRS]
;ID                  	Head        	Pattern         
 Spring-5362         	1607        	                	;

[TANKS]
;ID                  	Elevation   	InitLevel   	MinLevel    	MaxLevel    	Diameter    	MinVol      	VolCurve
 Tank-19005          	1602        	0.75        	0.15000000000000002     	1.5         	5           	150.0       	                	;
 Tank-19011          	1732        	0.75        	0.15000000000000002     	1.5         	5           	70.0        	                	;
 Tank-19012          	1732        	0.75        	0.15000000000000002     	1.5         	5           	80.0        	                	;

[PIPES]
;ID                  	Node1               	Node2               	Length      	Diameter    	Roughness   	MinorLoss   	Status
 Pipe-110093-0       	Tank-19012          	Node-10             	3.537       	63          	100         	0           	Open  	;
 Pipe-110093-1       	Node-10             	Node-107            	2.606       	63          	100         	0           	Open  	;
 Pipe-110093-2       	Node-107            	Node-4              	6.5         	63          	100         	0           	Open  	;
 Pipe-110093-3       	Node-4              	Node-5              	1.65        	63          	100         	0           	Open  	;
 Pipe-110093-4       	Node-5              	Node-6              	1.468       	63          	100         	0           	Open  	;
 Pipe-110093-5       	Node-6              	Node-7              	1.117       	63          	100         	0           	Open  	;
 Pipe-110093-6       	Node-7              	Node-8              	1.306       	63          	100         	0           	Open  	;
 Pipe-110093-7       	Node-8              	Node-14             	4.759       	63          	100         	0           	Open  	;
 Pipe-110094-0       	Node-10             	Node-11             	7.162       	25          	100         	0           	Open  	;
 Pipe-110094-1       	Node-11             	Node-12             	11.577      	25          	100         	0           	Open  	;
 Pipe-110095-0       	Tank-19011          	Node-14             	7.516       	63          	100         	0           	Open  	;
 Pipe-110095-2       	Node-15             	Node-16             	51.029      	63          	100         	0           	Open  	;
 Pipe-110095-3       	Node-16             	Node-105            	58.306      	63          	100         	0           	Open  	;
 Pipe-110095-4       	Node-105            	Node-18             	60.566      	63          	100         	0           	Open  	;
 Pipe-110095-5       	Node-18             	Node-19             	28.631      	63          	100         	0           	Open  	;
 Pipe-110095-6       	Node-19             	Node-25             	24.518      	63          	100         	0           	Open  	;
 Pipe-110095-7       	Node-25             	Node-21             	51.812      	63          	100         	0           	Open  	;
 Pipe-110095-8       	Node-21             	Node-100            	52.486      	63          	100         	0           	Open  	;
 Pipe-110095-9       	Node-100            	Node-23             	23.034      	63          	100         	0           	Open  	;
 Pipe-110095-10      	Node-23             	Node-24             	10.033      	63          	100         	0           	Open  	;
 Pipe-110096-0       	Node-25             	Node-26             	31.883      	32          	100         	0           	Open  	;
 Pipe-110096-1       	Node-26             	Node-27             	27.355      	32          	100         	0           	Open  	;
 Pipe-110096-2       	Node-27             	Node-98             	28.133      	32          	100         	0           	Open  	;
 Pipe-110096-3       	Node-98             	Node-29             	24.731      	32          	100         	0           	Open  	;
 Pipe-110097-0       	Node-32             	Tank-19005          	12.037      	90          	100         	0           	Open  	;
 Pipe-110098-1       	Node-33             	Node-35             	3.947       	75          	100         	0           	Open  	;
 Pipe-110099-0       	Node-35             	Node-36             	5.347       	75          	100         	0           	Open  	;
 Pipe-110099-1       	Node-36             	Node-37             	6.018       	75          	100         	0           	Open  	;
 Pipe-110099-2       	Node-37             	Node-38             	15.512      	75          	100         	0           	Open  	;
 Pipe-110099-3       	Node-38             	Node-39             	28.384      	75          	100         	0           	Open  	;
 Pipe-110099-4       	Node-39             	Node-40             	33.527      	75          	100         	0           	Open  	;
 Pipe-110099-5       	Node-40             	Node-41             	36.78       	75          	100         	0           	Open  	;
 Pipe-110099-6       	Node-41             	Node-42             	41.909      	75          	100         	0           	Open  	;
 Pipe-110099-7       	Node-42             	Node-43             	35.54       	75          	100         	0           	Open  	;
 Pipe-110099-8       	Node-43             	Node-44             	29.707      	75          	100         	0           	Open  	;
 Pipe-110099-9       	Node-44             	Node-45             	34.385      	75          	100         	0           	Open  	;
 Pipe-110099-10      	Node-45             	Node-46             	38.686      	75          	100         	0           	Open  	;
 Pipe-110099-11      	Node-46             	Node-47             	44.938      	75          	100         	0           	Open  	;
 Pipe-110099-12      	Node-47             	Node-48             	42.085      	75          	100         	0           	Open  	;
 Pipe-110099-13      	Node-48             	Node-49             	56.05       	75          	100         	0           	Open  	;
 Pipe-110099-14      	Node-49             	Node-50             	51.556      	75          	100         	0           	Open  	;
 Pipe-110099-15      	Node-50             	Node-51             	52.27       	75          	100         	0           	Open  	;
 Pipe-110099-16      	Node-51             	Node-52             	72.842      	75          	100         	0           	Open  	;
 Pipe-110099-17      	Node-52             	Node-53             	60.084      	75          	100         	0           	Open  	;
 Pipe-110099-18      	Node-53             	Node-54             	38.71       	75          	100         	0           	Open  	;
 Pipe-110099-19      	Node-54             	Node-55             	48.5        	75          	100         	0           	Open  	;
 Pipe-110099-20      	Node-55             	Node-56             	61.996      	75          	100         	0           	Open  	;
 Pipe-110099-21      	Node-56             	Node-57             	62.14       	75          	100         	0           	Open  	;
 Pipe-110099-22      	Node-57             	Node-58             	50.556      	75          	100         	0           	Open  	;
 Pipe-110099-23      	Node-58             	Node-59             	56.726      	75          	100         	0           	Open  	;
 Pipe-110099-24      	Node-59             	Node-60             	49.818      	75          	100         	0           	Open  	;
 Pipe-110099-25      	Node-60             	Node-61             	43.687      	75          	100         	0           	Open  	;
 Pipe-110099-26      	Node-61             	Node-62             	40.995      	75          	100         	0           	Open  	;
 Pipe-110099-27      	Node-62             	Node-63             	39.924      	75          	100         	0           	Open  	;
 Pipe-110099-28      	Node-63             	Node-64             	48.947      	75          	100         	0           	Open  	;
 Pipe-110099-29      	Node-64             	Node-65             	43.595      	75          	100         	0           	Open  	;
 Pipe-110099-30      	Node-65             	Node-66             	73.958      	75          	100         	0           	Open  	;
 Pipe-110099-31      	Node-66             	Node-67             	39.959      	75          	100         	0           	Open  	;
 Pipe-110099-32      	Node-67             	Node-68             	31.681      	75          	100         	0           	Open  	;
 Pipe-110099-33      	Node-68             	Node-108            	27.282      	75          	100         	0           	Open  	;
 Pipe-110099-34      	Node-108            	Node-70             	4.001       	75          	100         	0           	Open  	;
 Pipe-110099-35      	Node-70             	Tank-19011          	3.868       	75          	100         	0           	Open  	;
 Pipe-110100-0       	Node-108            	Node-73             	3.47        	75          	100         	0           	Open  	;
 Pipe-110100-1       	Node-73             	Tank-19012          	3.309       	75          	100         	0           	Open  	;
 Pipe-110101-0       	Node-133            	Node-76             	10.994      	25          	100         	0           	Open  	;
 Pipe-110102-0       	Node-77             	Node-78             	13.776      	63          	100         	0           	Open  	;
 Pipe-110103-0       	Node-135            	Node-81             	9.296       	25          	100         	0           	Open  	;
 Pipe-110104-0       	Tank-19005          	Node-83             	9.493       	90          	100         	0           	Open  	;
 Pipe-110104-1       	Node-83             	Node-84             	8.708       	90          	100         	0           	Open  	;
 Pipe-110104-3       	Node-85             	Node-86             	27.986      	90          	100         	0           	Open  	;
 Pipe-110104-4       	Node-86             	Node-87             	27.538      	90          	100         	0           	Open  	;
 Pipe-110104-5       	Node-87             	Node-88             	29.415      	90          	100         	0           	Open  	;
 Pipe-110104-6       	Node-88             	Node-89             	30.558      	90          	100         	0           	Open  	;
 Pipe-110104-7       	Node-89             	Node-90             	17.304      	90          	100         	0           	Open  	;
 Pipe-110104-8       	Node-90             	Node-91             	11.936      	90          	100         	0           	Open  	;
 Pipe-110104-9       	Node-91             	Node-92             	11.657      	90          	100         	0           	Open  	;
 Pipe-110104-10      	Node-92             	Node-93             	10.041      	90          	100         	0           	Open  	;
 Pipe-110104-11      	Node-93             	Node-94             	27.839      	90          	100         	0           	Open  	;
 Pipe-110104-12      	Node-94             	Spring-5362         	21.476      	90          	100         	0           	Open  	;
 Pipe-110105-0       	Node-127            	Node-97             	28.257      	25          	100         	0           	Open  	;
 Pipe-110106-0       	Node-98             	Node-99             	45.874      	32          	100         	0           	Open  	;
 Pipe-110107-0       	Node-100            	Node-101            	50.334      	32          	100         	0           	Open  	;
 Pipe-110107-1       	Node-101            	Node-102            	45.269      	32          	100         	0           	Open  	;
 Pipe-110107-2       	Node-102            	Node-103            	39.248      	32          	100         	0           	Open  	;
 Pipe-110107-3       	Node-103            	Node-104            	9.414       	32          	100         	0           	Open  	;
 Pipe-110108-0       	Node-105            	Node-106            	26.469      	32          	100         	0           	Open  	;
 Pipe-110109-0       	Node-107            	Node-108            	1.698       	32          	100         	0           	Open  	;
 Pipe-110109-2       	Node-109            	Node-110            	15.141      	32          	100         	0           	Open  	;
 Pipe-110109-3       	Node-110            	Node-111            	13.795      	32          	100         	0           	Open  	;
 Pipe-110109-4       	Node-111            	Node-112            	21.12       	32          	100         	0           	Open  	;
 Pipe-110109-5       	Node-112            	Node-113            	20.179      	32          	100         	0           	Open  	;
 Pipe-110109-6       	Node-113            	Node-114            	29.56       	32          	100         	0           	Open  	;
 Pipe-110109-7       	Node-114            	Node-115            	31.783      	32          	100         	0           	Open  	;
 Pipe-110109-8       	Node-115            	Node-116            	37.852      	32          	100         	0           	Open  	;
 Pipe-110109-9       	Node-116            	Node-117            	55.794      	32          	100         	0           	Open  	;
 Pipe-110109-10      	Node-117            	Node-118            	75.181      	32          	100         	0           	Open  	;
 Pipe-110109-11      	Node-118            	Node-119            	55.397      	32          	100         	0           	Open  	;
 Pipe-110109-12      	Node-119            	Node-120            	45.101      	32          	100         	0           	Open  	;
 Pipe-110109-13      	Node-120            	Node-121            	36.723      	32          	100         	0           	Open  	;
 Pipe-110109-14      	Node-121            	Node-122            	38.779      	32          	100         	0           	Open  	;
 Pipe-110109-15      	Node-122            	Node-123            	32.75       	32          	100         	0           	Open  	;
 Pipe-110109-16      	Node-123            	Node-124            	45.431      	32          	100         	0           	Open  	;
 Pipe-110109-17      	Node-124            	Node-125            	47.158      	32          	100         	0           	Open  	;
 Pipe-110109-18      	Node-125            	Node-126            	45.187      	32          	100         	0           	Open  	;
 Pipe-110109-19      	Node-126            	Node-127            	77.527      	32          	100         	0           	Open  	;
 Pipe-110109-20      	Node-127            	Node-128            	43.234      	32          	100         	0           	Open  	;
 Pipe-110109-21      	Node-128            	Node-129            	60.358      	32          	100         	0           	Open  	;
 Pipe-110109-22      	Node-129            	Node-130            	32.899      	32          	100         	0           	Open  	;
 Pipe-110109-23      	Node-130            	Node-131            	38.586      	32          	100         	0           	Open  	;
 Pipe-110109-24      	Node-131            	Node-132            	24.2        	32          	100         	0           	Open  	;
 Pipe-110109-25      	Node-132            	Node-133            	23.679      	32          	100         	0           	Open  	;
 Pipe-110109-26      	Node-133            	Node-134            	21.18       	32          	100         	0           	Open  	;
 Pipe-110109-27      	Node-134            	Node-135            	30.028      	32          	100         	0           	Open  	;

[PUMPS]
;ID                  	Node1               	Node2               	Parameters  
 Pump-442            	Node-32             	Node-33             	Head curve-Pump-442     	;

[VALVES]
;ID                  	Node1           	Node2           	Diameter    	Type        	Setting     	MinorLoss   
 TCV-23945           	Node-78             	Tank-19005          	63.0        	TCV         	0           	0.0         	;
 TCV-23947           	Node-84             	Node-85             	90.0        	TCV         	0           	0.0         	;
 TCV-23956           	Node-108            	Node-109            	75.0        	TCV         	0           	0.0         	;
 TCV-23957           	Node-14             	Node-15             	63.0        	TCV         	0           	0.0         	;

[TAGS]

[DEMANDS]
;Junction        	Demand      	Pattern         	Category

[STATUS]
;ID              	Status/Setting

[PATTERNS]
;ID              	Multipliers

[CURVES]
;ID              	X-Value     	Y-Value     
 curve-Pump-442  	8           	180         	;

[CONTROLS]

[RULES]

[ENERGY]
 Global Efficiency  	75
 Global Price       	0
 Demand Charge      	0

[EMITTERS]
;Junction        	Coefficient

[QUALITY]
;Node            	InitQual

[SOURCES]
;Node            	Type        	Quality     	Pattern

[REACTIONS]
;Type     	Pipe/Tank       	Coefficient


[REACTIONS]
 Order Bulk            	1
 Order Tank            	1
 Order Wall            	1
 Global Bulk           	0
 Global Wall           	0
 Limiting Potential    	0
 Roughness Correlation 	0

[MIXING]
;Tank            	Model

[TIMES]
 Duration           	0
 Hydraulic Timestep 	1:00
 Quality Timestep   	0:05
 Pattern Timestep   	1:00
 Pattern Start      	0:00
 Report Timestep    	1:00
 Report Start       	0:00
 Start ClockTime    	12 am
 Statistic          	None

[REPORT]
 Status             	No
 Summary            	No
 Page               	0

[OPTIONS]
 Units              	LPS
 Headloss           	H-W
 Specific Gravity   	1
 Viscosity          	1
 Trials             	40
 Accuracy           	0.001
 CHECKFREQ          	2
 MAXCHECK           	10
 DAMPLIMIT          	0
 Unbalanced         	Continue 10
 Pattern            	0
 Demand Multiplier  	1.0
 Emitter Exponent   	0.5
 Quality            	None mg/L
 Diffusivity        	1
 Tolerance          	0.01

[COORDINATES]
;Node                	X-Coord         	Y-Coord         
 Node-10             	29.752463       	-2.458776       
 Node-107            	29.752487       	-2.458775       
 Node-4              	29.752545       	-2.458775       
 Node-5              	29.752559       	-2.458772       
 Node-6              	29.752572       	-2.458767       
 Node-7              	29.752578       	-2.458759       
 Node-8              	29.752583       	-2.458748       
 Node-14             	29.752589       	-2.458706       
 Node-11             	29.752444       	-2.458837       
 Node-12             	29.752405       	-2.458934       
 Node-15             	29.753016       	-2.458606       
 Node-16             	29.753471       	-2.458548       
 Node-105            	29.753994       	-2.45852        
 Node-18             	29.754534       	-2.458581       
 Node-19             	29.754778       	-2.458663       
 Node-25             	29.75498        	-2.45875        
 Node-21             	29.755435       	-2.45885        
 Node-100            	29.755906       	-2.458839       
 Node-23             	29.755915       	-2.458631       
 Node-24             	29.756005       	-2.458629       
 Node-26             	29.755113       	-2.458495       
 Node-27             	29.755216       	-2.45827        
 Node-98             	29.755465       	-2.45823        
 Node-29             	29.755687       	-2.458218       
 Node-32             	29.746903       	-2.470161       
 Node-33             	29.746904       	-2.470125       
 Node-35             	29.746909       	-2.470089       
 Node-36             	29.746931       	-2.470047       
 Node-37             	29.746964       	-2.470003       
 Node-38             	29.74706        	-2.469901       
 Node-39             	29.747238       	-2.469718       
 Node-40             	29.747445       	-2.469498       
 Node-41             	29.747675       	-2.46926        
 Node-42             	29.747919       	-2.468972       
 Node-43             	29.74813        	-2.468731       
 Node-44             	29.748288       	-2.468515       
 Node-45             	29.748468       	-2.468262       
 Node-46             	29.748676       	-2.467982       
 Node-47             	29.748895       	-2.467642       
 Node-48             	29.749069       	-2.467304       
 Node-49             	29.749287       	-2.466848       
 Node-50             	29.749474       	-2.466422       
 Node-51             	29.74967        	-2.465993       
 Node-52             	29.749948       	-2.465397       
 Node-53             	29.750181       	-2.464908       
 Node-54             	29.750372       	-2.464615       
 Node-55             	29.750669       	-2.464295       
 Node-56             	29.751029       	-2.463868       
 Node-57             	29.751383       	-2.463434       
 Node-58             	29.751655       	-2.463069       
 Node-59             	29.751949       	-2.46265        
 Node-60             	29.752185       	-2.462267       
 Node-61             	29.752331       	-2.461902       
 Node-62             	29.752437       	-2.461547       
 Node-63             	29.752451       	-2.461186       
 Node-64             	29.752449       	-2.460744       
 Node-65             	29.752437       	-2.460351       
 Node-66             	29.752437       	-2.459683       
 Node-67             	29.752457       	-2.459322       
 Node-68             	29.752482       	-2.459037       
 Node-108            	29.752487       	-2.458791       
 Node-70             	29.752513       	-2.458767       
 Node-73             	29.752459       	-2.458777       
 Node-133            	29.753719       	-2.466816       
 Node-76             	29.753719       	-2.466916       
 Node-77             	29.746937       	-2.470276       
 Node-78             	29.746978       	-2.470158       
 Node-135            	29.753273       	-2.46692        
 Node-81             	29.753284       	-2.467003       
 Node-83             	29.747071       	-2.470066       
 Node-84             	29.747141       	-2.47003        
 Node-85             	29.74736        	-2.469903       
 Node-86             	29.747576       	-2.469775       
 Node-87             	29.747787       	-2.469644       
 Node-88             	29.748011       	-2.469504       
 Node-89             	29.748243       	-2.469356       
 Node-90             	29.748381       	-2.469285       
 Node-91             	29.748485       	-2.469259       
 Node-92             	29.748589       	-2.469246       
 Node-93             	29.748679       	-2.469251       
 Node-94             	29.748922       	-2.469312       
 Node-127            	29.75421        	-2.464947       
 Node-97             	29.754463       	-2.464927       
 Node-99             	29.75554        	-2.457823       
 Node-101            	29.756358       	-2.458825       
 Node-102            	29.756763       	-2.458786       
 Node-103            	29.756735       	-2.458433       
 Node-104            	29.756815       	-2.458406       
 Node-106            	29.753992       	-2.458759       