[TITLE]
2042 Rwinsha-Karambi WSS in Huye District

[JUNCTIONS]
;ID                  	Elev        	Demand      	Pattern         
 Node-412            	1807.0      	0.0         	                	;
 Node-2              	1807.0      	0.0         	                	;
 Node-3              	1809.0      	0.0         	                	;
 Node-4              	1812.0      	0.0         	                	;
 Node-5              	1811.0      	0.0         	                	;
 Node-6              	1812.0      	0.0         	                	;
 Node-7              	1817.0      	0.0         	                	;
 Node-9              	1681.0      	0.277777778 	                	;
 Node-218            	1684.0      	0.0         	                	;
 Node-11             	1682.0      	0.005555556 	                	;
 Node-844            	1679.0      	0.0         	                	;
 Node-850            	1667.0      	0.0         	                	;
 Node-14             	1664.0      	0.009259259 	                	;
 Node-15             	1698.0      	0.006481481 	                	;
 Node-284            	1701.0      	0.0         	                	;
 Node-17             	1667.0      	0.00462963  	                	;
 Node-491            	1664.0      	0.0         	                	;
 Node-489            	1666.0      	0.0         	                	;
 Node-20             	1669.0      	0.003703704 	                	;
 Node-950            	1638.0      	0.0         	                	;
 Node-22             	1639.0      	0.0         	                	;
 Node-23             	1640.0      	0.006481481 	                	;
 Node-24             	1681.0      	0.007407407 	                	;
 Node-25             	1681.0      	0.0         	                	;
 Node-26             	1681.0      	0.0         	                	;
 Node-713            	1679.0      	0.0         	                	;
 Node-810            	1668.0      	0.0         	                	;
 Node-29             	1668.0      	0.0         	                	;
 Node-30             	1670.0      	0.006481481 	                	;
 Node-245            	1683.0      	0.0         	                	;
 Node-32             	1681.0      	0.00462963  	                	;
 Node-802            	1659.0      	0.0         	                	;
 Node-34             	1659.0      	0.0         	                	;
 Node-35             	1659.0      	0.0         	                	;
 Node-36             	1659.0      	0.003703704 	                	;
 Node-845            	1681.0      	0.0         	                	;
 Node-38             	1677.0      	0.0         	                	;
 Node-39             	1677.0      	0.006481481 	                	;
 Node-842            	1680.0      	0.0         	                	;
 Node-41             	1682.0      	0.002777778 	                	;
 Node-43             	1660.0      	0.0         	                	;
 Node-46             	1661.0      	0.0         	                	;
 Node-45             	1659.0      	0.00462963  	                	;
 Node-47             	1661.0      	0.0         	                	;
 Node-48             	1661.0      	0.0         	                	;
 Node-49             	1659.0      	0.0         	                	;
 Node-50             	1659.0      	0.00462963  	                	;
 Node-804            	1664.0      	0.0         	                	;
 Node-52             	1663.0      	0.0         	                	;
 Node-53             	1665.0      	0.0         	                	;
 Node-68             	1664.0      	0.0         	                	;
 Node-70             	1667.0      	0.0         	                	;
 Node-831            	1660.0      	0.0         	                	;
 Node-59             	1660.0      	0.0         	                	;
 Node-60             	1661.0      	0.0         	                	;
 Node-61             	1659.0      	0.00462963  	                	;
 Node-63             	1667.0      	0.0         	                	;
 Node-64             	1670.0      	0.011111111 	                	;
 Node-803            	1660.0      	0.0         	                	;
 Node-66             	1660.0      	0.0         	                	;
 Node-67             	1660.0      	0.00462963  	                	;
 Node-69             	1664.0      	0.005555556 	                	;
 Node-71             	1663.0      	0.0         	                	;
 Node-72             	1662.0      	1.547222222 	                	;
 Node-74             	1709.0      	0.0         	                	;
 Node-75             	1709.0      	0.0         	                	;
 Node-76             	1707.0      	0.0         	                	;
 Node-77             	1706.0      	0.0         	                	;
 Node-78             	1701.0      	0.0         	                	;
 Node-79             	1702.0      	0.0         	                	;
 Node-80             	1700.0      	0.0         	                	;
 Node-81             	1697.0      	0.0         	                	;
 Node-226            	1696.0      	0.0         	                	;
 Node-83             	1696.0      	0.0         	                	;
 Node-84             	1695.0      	0.0         	                	;
 Node-85             	1696.0      	0.0         	                	;
 Node-86             	1694.0      	0.0         	                	;
 Node-885            	1697.0      	0.0         	                	;
 Node-88             	1695.0      	0.0         	                	;
 Node-89             	1691.0      	0.0         	                	;
 Node-90             	1689.0      	0.0         	                	;
 Node-91             	1684.0      	0.0         	                	;
 Node-92             	1680.0      	0.0         	                	;
 Node-93             	1680.0      	0.0         	                	;
 Node-94             	1675.0      	0.0         	                	;
 Node-95             	1675.0      	0.0         	                	;
 Node-96             	1676.0      	0.0         	                	;
 Node-806            	1674.0      	0.0         	                	;
 Node-99             	1672.0      	0.0         	                	;
 Node-100            	1672.0      	0.008333333 	                	;
 Node-860            	1679.0      	0.0         	                	;
 Node-102            	1678.0      	0.0         	                	;
 Node-949            	1638.0      	0.0         	                	;
 Node-104            	1637.0      	0.0         	                	;
 Node-105            	1637.0      	0.0         	                	;
 Node-106            	1637.0      	0.005555556 	                	;
 Node-948            	1638.0      	0.0         	                	;
 Node-108            	1640.0      	0.0         	                	;
 Node-109            	1640.0      	0.001851852 	                	;
 Node-954            	1639.0      	0.0         	                	;
 Node-111            	1641.0      	0.0         	                	;
 Node-118            	1645.0      	0.0         	                	;
 Node-113            	1645.0      	0.0         	                	;
 Node-114            	1645.0      	0.0         	                	;
 Node-115            	1645.0      	0.0         	                	;
 Node-116            	1645.0      	0.0         	                	;
 Node-117            	1642.0      	0.001851852 	                	;
 Node-119            	1642.0      	0.0         	                	;
 Node-120            	1642.0      	0.009259259 	                	;
 Node-121            	1637.0      	0.007407407 	                	;
 Node-122            	1637.0      	0.0         	                	;
 Node-953            	1640.0      	0.0         	                	;
 Node-952            	1640.0      	0.0         	                	;
 Node-125            	1640.0      	0.0         	                	;
 Node-126            	1642.0      	0.003703704 	                	;
 Node-127            	1639.0      	0.001851852 	                	;
 Node-963            	1641.0      	0.0         	                	;
 Node-962            	1641.0      	0.0         	                	;
 Node-130            	1643.0      	0.0         	                	;
 Node-131            	1643.0      	0.00462963  	                	;
 Node-958            	1640.0      	0.0         	                	;
 Node-135            	1644.0      	0.0         	                	;
 Node-134            	1644.0      	0.005555556 	                	;
 Node-136            	1644.0      	0.0         	                	;
 Node-137            	1644.0      	0.0         	                	;
 Node-138            	1644.0      	0.0         	                	;
 Node-139            	1646.0      	0.0         	                	;
 Node-140            	1646.0      	0.0         	                	;
 Node-141            	1646.0      	0.0         	                	;
 Node-142            	1646.0      	0.0         	                	;
 Node-143            	1646.0      	0.00462963  	                	;
 Node-144            	1640.0      	0.013888889 	                	;
 Node-145            	1640.0      	0.0         	                	;
 Node-961            	1642.0      	0.0         	                	;
 Node-147            	1640.0      	0.003703704 	                	;
 Node-959            	1640.0      	0.0         	                	;
 Node-960            	1642.0      	0.0         	                	;
 Node-150            	1642.0      	0.0         	                	;
 Node-151            	1643.0      	0.002777778 	                	;
 Node-152            	1638.0      	0.005555556 	                	;
 Node-957            	1640.0      	0.0         	                	;
 Node-195            	1645.0      	0.0         	                	;
 Node-155            	1645.0      	0.0         	                	;
 Node-156            	1647.0      	0.0         	                	;
 Node-157            	1648.0      	0.023148148 	                	;
 Node-158            	1631.0      	0.003703704 	                	;
 Node-164            	1630.0      	0.0         	                	;
 Node-160            	1630.0      	0.001851852 	                	;
 Node-161            	1630.0      	0.0         	                	;
 Node-162            	1630.0      	0.0         	                	;
 Node-163            	1630.0      	0.0         	                	;
 Node-165            	1632.0      	0.0         	                	;
 Node-166            	1641.0      	0.0         	                	;
 Node-167            	1643.0      	0.0         	                	;
 Node-193            	1645.0      	0.0         	                	;
 Node-964            	1643.0      	0.0         	                	;
 Node-170            	1643.0      	0.0         	                	;
 Node-171            	1645.0      	0.006481481 	                	;
 Node-172            	1651.0      	0.013888889 	                	;
 Node-184            	1649.0      	0.0         	                	;
 Node-967            	1645.0      	0.0         	                	;
 Node-175            	1646.0      	0.0         	                	;
 Node-176            	1645.0      	0.0         	                	;
 Node-177            	1648.0      	0.0         	                	;
 Node-178            	1649.0      	0.0         	                	;
 Node-179            	1649.0      	0.0         	                	;
 Node-180            	1648.0      	0.0         	                	;
 Node-181            	1649.0      	0.0         	                	;
 Node-182            	1647.0      	0.0         	                	;
 Node-183            	1647.0      	0.0         	                	;
 Node-185            	1651.0      	0.0         	                	;
 Node-186            	1653.0      	0.0         	                	;
 Node-232            	1655.0      	0.0         	                	;
 Node-188            	1660.0      	0.0         	                	;
 Node-493            	1664.0      	0.0         	                	;
 Node-190            	1667.0      	0.0         	                	;
 Node-259            	1670.0      	0.0         	                	;
 Node-196            	1646.0      	0.231481481 	                	;
 Node-198            	1709.0      	0.0         	                	;
 Node-199            	1705.0      	0.0         	                	;
 Node-200            	1705.0      	0.0         	                	;
 Node-201            	1703.0      	0.231481481 	                	;
 Node-382            	1709.0      	0.0         	                	;
 Node-204            	1709.0      	0.0         	                	;
 Node-256            	1707.0      	0.0         	                	;
 Node-206            	1703.0      	0.0         	                	;
 Node-207            	1701.0      	0.0         	                	;
 Node-208            	1702.0      	0.0         	                	;
 Node-209            	1700.0      	0.0         	                	;
 Node-210            	1697.0      	0.0         	                	;
 Node-211            	1695.0      	0.0         	                	;
 Node-212            	1695.0      	0.0         	                	;
 Node-213            	1695.0      	0.0         	                	;
 Node-214            	1695.0      	0.0         	                	;
 Node-215            	1693.0      	0.0         	                	;
 Node-216            	1690.0      	0.0         	                	;
 Node-217            	1686.0      	0.0         	                	;
 Node-219            	1680.0      	0.0         	                	;
 Node-220            	1676.0      	0.0         	                	;
 Node-221            	1674.0      	0.0         	                	;
 Node-281            	1672.0      	0.0         	                	;
 Node-223            	1672.0      	0.0         	                	;
 Node-224            	1671.0      	0.0         	                	;
 Node-227            	1701.0      	0.007407407 	                	;
 Node-228            	1655.0      	0.001851852 	                	;
 Node-229            	1655.0      	0.0         	                	;
 Node-230            	1655.0      	0.0         	                	;
 Node-231            	1655.0      	0.0         	                	;
 Node-233            	1677.0      	0.005555556 	                	;
 Node-234            	1675.0      	0.0         	                	;
 Node-235            	1675.0      	0.0         	                	;
 Node-236            	1675.0      	0.0         	                	;
 Node-257            	1675.0      	0.0         	                	;
 Node-238            	1676.0      	0.0         	                	;
 Node-297            	1677.0      	0.0         	                	;
 Node-240            	1678.0      	0.0         	                	;
 Node-241            	1678.0      	0.0         	                	;
 Node-289            	1678.0      	0.0         	                	;
 Node-243            	1678.0      	0.0         	                	;
 Node-244            	1681.0      	0.0         	                	;
 Node-246            	1685.0      	0.0         	                	;
 Node-247            	1685.0      	0.0         	                	;
 Node-305            	1687.0      	0.0         	                	;
 Node-249            	1690.0      	0.0         	                	;
 Node-250            	1692.0      	0.0         	                	;
 Node-251            	1695.0      	0.0         	                	;
 Node-252            	1696.0      	0.0         	                	;
 Node-253            	1697.0      	0.0         	                	;
 Node-254            	1702.0      	0.0         	                	;
 Node-313            	1705.0      	0.0         	                	;
 Node-258            	1677.0      	0.011111111 	                	;
 Node-349            	1666.0      	0.0         	                	;
 Node-261            	1665.0      	0.0         	                	;
 Node-327            	1664.0      	0.0         	                	;
 Node-263            	1662.0      	0.0         	                	;
 Node-264            	1660.0      	0.0         	                	;
 Node-265            	1660.0      	0.0         	                	;
 Node-266            	1652.0      	0.0         	                	;
 Node-267            	1648.0      	0.0         	                	;
 Node-268            	1640.0      	0.0         	                	;
 Node-269            	1640.0      	0.0         	                	;
 Node-270            	1640.0      	0.0         	                	;
 Node-271            	1644.0      	0.0         	                	;
 Node-386            	1644.0      	0.0         	                	;
 Node-273            	1646.0      	0.0         	                	;
 Node-274            	1649.0      	0.0         	                	;
 Node-275            	1652.0      	0.0         	                	;
 Node-276            	1654.0      	0.0         	                	;
 Node-399            	1655.0      	0.0         	                	;
 Node-278            	1673.0      	0.014814815 	                	;
 Node-279            	1671.0      	0.0         	                	;
 Node-280            	1672.0      	0.0         	                	;
 Node-316            	1703.0      	0.0         	                	;
 Node-283            	1701.0      	0.0         	                	;
 Node-285            	1701.0      	0.0         	                	;
 Node-286            	1700.0      	0.0         	                	;
 Node-287            	1700.0      	0.0         	                	;
 Node-288            	1700.0      	0.005555556 	                	;
 Node-290            	1676.0      	0.0         	                	;
 Node-291            	1674.0      	0.008333333 	                	;
 Node-292            	1671.0      	0.005555556 	                	;
 Node-293            	1671.0      	0.0         	                	;
 Node-294            	1671.0      	0.0         	                	;
 Node-295            	1671.0      	0.0         	                	;
 Node-296            	1675.0      	0.0         	                	;
 Node-298            	1687.0      	0.005555556 	                	;
 Node-299            	1687.0      	0.0         	                	;
 Node-300            	1687.0      	0.0         	                	;
 Node-301            	1687.0      	0.0         	                	;
 Node-302            	1688.0      	0.0         	                	;
 Node-332            	1688.0      	0.0         	                	;
 Node-304            	1688.0      	0.0         	                	;
 Node-306            	1709.0      	0.005555556 	                	;
 Node-307            	1709.0      	0.0         	                	;
 Node-308            	1707.0      	0.0         	                	;
 Node-309            	1706.0      	0.0         	                	;
 Node-693            	1703.0      	0.0         	                	;
 Node-311            	1702.0      	0.00462963  	                	;
 Node-319            	1705.0      	0.0         	                	;
 Node-314            	1699.0      	0.005555556 	                	;
 Node-315            	1699.0      	0.0         	                	;
 Node-317            	1703.0      	0.0         	                	;
 Node-318            	1704.0      	0.0         	                	;
 Node-348            	1667.0      	0.0         	                	;
 Node-321            	1670.0      	0.0         	                	;
 Node-322            	1671.0      	0.006481481 	                	;
 Node-323            	1654.0      	0.027777778 	                	;
 Node-324            	1655.0      	0.0         	                	;
 Node-325            	1658.0      	0.0         	                	;
 Node-350            	1660.0      	0.0         	                	;
 Node-328            	1686.0      	0.005555556 	                	;
 Node-329            	1685.0      	0.0         	                	;
 Node-330            	1685.0      	0.0         	                	;
 Node-331            	1685.0      	0.0         	                	;
 Node-361            	1654.0      	0.0         	                	;
 Node-376            	1656.0      	0.0         	                	;
 Node-335            	1657.0      	0.0         	                	;
 Node-340            	1658.0      	0.0         	                	;
 Node-337            	1658.0      	0.0         	                	;
 Node-338            	1658.0      	0.0         	                	;
 Node-339            	1659.0      	0.005555556 	                	;
 Node-341            	1657.0      	0.0         	                	;
 Node-342            	1657.0      	0.0         	                	;
 Node-343            	1657.0      	0.0         	                	;
 Node-344            	1657.0      	0.00462963  	                	;
 Node-345            	1666.0      	0.006481481 	                	;
 Node-346            	1666.0      	0.0         	                	;
 Node-347            	1666.0      	0.0         	                	;
 Node-351            	1660.0      	0.006481481 	                	;
 Node-352            	1643.0      	0.231481481 	                	;
 Node-353            	1646.0      	0.0         	                	;
 Node-354            	1648.0      	0.0         	                	;
 Node-363            	1649.0      	0.0         	                	;
 Node-356            	1650.0      	0.0         	                	;
 Node-357            	1653.0      	0.0         	                	;
 Node-358            	1653.0      	0.0         	                	;
 Node-359            	1656.0      	0.0         	                	;
 Node-360            	1657.0      	0.0         	                	;
 Node-364            	1649.0      	0.231481481 	                	;
 Node-365            	1634.0      	0.046296296 	                	;
 Node-366            	1635.0      	0.0         	                	;
 Node-367            	1638.0      	0.0         	                	;
 Node-368            	1638.0      	0.0         	                	;
 Node-369            	1644.0      	0.0         	                	;
 Node-370            	1648.0      	0.0         	                	;
 Node-371            	1651.0      	0.0         	                	;
 Node-372            	1653.0      	0.0         	                	;
 Node-373            	1655.0      	0.0         	                	;
 Node-374            	1654.0      	0.0         	                	;
 Node-400            	1655.0      	0.0         	                	;
 Node-377            	1656.0      	0.0         	                	;
 Node-378            	1660.0      	0.0         	                	;
 Node-379            	1662.0      	0.0         	                	;
 Node-380            	1664.0      	0.005555556 	                	;
 Node-383            	1709.0      	0.0         	                	;
 Node-384            	1706.0      	0.0         	                	;
 Node-385            	1705.0      	0.231481481 	                	;
 Node-387            	1646.0      	0.0         	                	;
 Node-388            	1650.0      	0.0         	                	;
 Node-391            	1654.0      	0.0         	                	;
 Node-390            	1659.0      	0.005555556 	                	;
 Node-392            	1658.0      	0.0         	                	;
 Node-393            	1661.0      	0.0         	                	;
 Node-394            	1659.0      	0.0         	                	;
 Node-395            	1663.0      	0.0         	                	;
 Node-396            	1666.0      	0.0         	                	;
 Node-397            	1673.0      	0.0         	                	;
 Node-398            	1676.0      	0.006481481 	                	;
 Node-401            	1653.0      	0.231481481 	                	;
 Node-403            	1802.0      	0.0         	                	;
 Node-404            	1803.0      	0.0         	                	;
 Node-405            	1801.0      	0.0         	                	;
 Node-408            	1804.0      	0.0         	                	;
 Node-409            	1803.0      	0.0         	                	;
 Node-410            	1801.0      	0.0         	                	;
 Node-413            	1800.0      	0.0         	                	;
 Node-414            	1793.0      	0.0         	                	;
 Node-415            	1795.0      	0.0         	                	;
 Node-416            	1802.0      	0.0         	                	;
 Node-417            	1793.0      	0.0         	                	;
 Node-418            	1784.0      	0.0         	                	;
 Node-419            	1784.0      	0.0         	                	;
 Node-420            	1781.0      	0.0         	                	;
 Node-421            	1783.0      	0.0         	                	;
 Node-422            	1775.0      	0.0         	                	;
 Node-423            	1774.0      	0.0         	                	;
 Node-424            	1774.0      	0.0         	                	;
 Node-425            	1769.0      	0.0         	                	;
 Node-426            	1763.0      	0.0         	                	;
 Node-427            	1758.0      	0.0         	                	;
 Node-428            	1758.0      	0.0         	                	;
 Node-429            	1748.0      	0.0         	                	;
 Node-430            	1734.0      	0.0         	                	;
 Node-431            	1726.0      	0.0         	                	;
 Node-432            	1718.0      	0.0         	                	;
 Node-433            	1711.0      	0.0         	                	;
 Node-434            	1706.0      	0.0         	                	;
 Node-435            	1701.0      	0.0         	                	;
 Node-436            	1693.0      	0.0         	                	;
 Node-437            	1682.0      	0.0         	                	;
 Node-438            	1673.0      	0.0         	                	;
 Node-439            	1665.0      	0.0         	                	;
 Node-440            	1663.0      	0.0         	                	;
 Node-441            	1660.0      	0.0         	                	;
 Node-442            	1667.0      	0.0         	                	;
 Node-443            	1683.0      	0.0         	                	;
 Node-444            	1697.0      	0.0         	                	;
 Node-445            	1703.0      	0.0         	                	;
 Node-446            	1709.0      	0.0         	                	;
 Node-447            	1707.0      	0.0         	                	;
 Node-574            	1709.0      	0.0         	                	;
 Node-536            	1709.0      	0.0         	                	;
 Node-451            	1710.0      	0.0         	                	;
 Node-452            	1710.0      	0.0         	                	;
 Node-453            	1710.0      	0.0         	                	;
 Node-454            	1710.0      	0.0         	                	;
 Node-455            	1710.0      	0.0         	                	;
 Node-456            	1714.0      	0.0         	                	;
 Node-457            	1709.0      	0.0         	                	;
 Node-458            	1705.0      	0.0         	                	;
 Node-459            	1704.0      	0.0         	                	;
 Node-460            	1710.0      	0.0         	                	;
 Node-657            	1709.0      	0.0         	                	;
 Node-462            	1709.0      	0.0         	                	;
 Node-463            	1709.0      	0.0         	                	;
 Node-464            	1710.0      	0.0         	                	;
 Node-465            	1710.0      	0.0         	                	;
 Node-466            	1710.0      	0.0         	                	;
 Node-467            	1714.0      	0.007407407 	                	;
 Node-468            	1660.0      	0.007407407 	                	;
 Node-469            	1660.0      	0.0         	                	;
 Node-470            	1657.0      	0.0         	                	;
 Node-819            	1657.0      	0.0         	                	;
 Node-472            	1661.0      	0.006481481 	                	;
 Node-473            	1662.0      	0.0         	                	;
 Node-496            	1661.0      	0.0         	                	;
 Node-502            	1663.0      	0.0         	                	;
 Node-500            	1661.0      	0.0         	                	;
 Node-477            	1659.0      	0.0         	                	;
 Node-829            	1660.0      	0.0         	                	;
 Node-479            	1658.0      	0.0         	                	;
 Node-498            	1659.0      	0.0         	                	;
 Node-481            	1655.0      	0.007407407 	                	;
 Node-767            	1653.0      	0.0         	                	;
 Node-483            	1652.0      	0.0         	                	;
 Node-778            	1654.0      	0.0         	                	;
 Node-828            	1665.0      	0.0         	                	;
 Node-486            	1669.0      	0.007407407 	                	;
 Node-488            	1667.0      	0.0         	                	;
 Node-490            	1666.0      	0.0         	                	;
 Node-492            	1665.0      	0.0         	                	;
 Node-494            	1659.0      	0.00462963  	                	;
 Node-495            	1659.0      	0.0         	                	;
 Node-821            	1657.0      	0.0         	                	;
 Node-499            	1659.0      	0.00462963  	                	;
 Node-501            	1663.0      	0.005555556 	                	;
 Node-503            	1663.0      	0.006481481 	                	;
 Node-504            	1681.0      	0.277777778 	                	;
 Node-505            	1684.0      	0.0         	                	;
 Node-506            	1684.0      	0.0         	                	;
 Node-507            	1684.0      	0.0         	                	;
 Node-508            	1687.0      	0.0         	                	;
 Node-509            	1685.0      	0.0         	                	;
 Node-510            	1684.0      	0.0         	                	;
 Node-511            	1685.0      	0.0         	                	;