[TITLE]
20420 Agatongati WSS in Huye District

[JUNCTIONS]
;ID                  	Elev        	Demand      	Pattern         
 Node-690            	1852.0      	0.0         	                	;
 Node-2              	1852.0      	0.0         	                	;
 Node-722            	1851.0      	0.0         	                	;
 Node-4              	1851.0      	0.0         	                	;
 Node-5              	1851.0      	0.0         	                	;
 Node-6              	1848.0      	0.0         	                	;
 Node-7              	1848.0      	0.0         	                	;
 Node-8              	1846.0      	0.0         	                	;
 Node-9              	1846.0      	0.0         	                	;
 Node-10             	1846.0      	0.0         	                	;
 Node-11             	1846.0      	0.0         	                	;
 Node-12             	1845.0      	0.00462963  	                	;
 Node-144            	1837.0      	0.0         	                	;
 Node-14             	1839.0      	0.0         	                	;
 Node-15             	1842.0      	0.0         	                	;
 Node-16             	1842.0      	0.0         	                	;
 Node-17             	1842.0      	0.0         	                	;
 Node-18             	1842.0      	0.0         	                	;
 Node-19             	1842.0      	0.0         	                	;
 Node-20             	1843.0      	0.0         	                	;
 Node-21             	1843.0      	0.0         	                	;
 Node-22             	1843.0      	0.0         	                	;
 Node-23             	1843.0      	0.0         	                	;
 Node-24             	1844.0      	0.0         	                	;
 Node-25             	1844.0      	0.0         	                	;
 Node-26             	1846.0      	0.0         	                	;
 Node-27             	1848.0      	0.0         	                	;
 Node-28             	1850.0      	0.0         	                	;
 Node-691            	1853.0      	0.0         	                	;
 Node-568            	1845.0      	0.0         	                	;
 Node-31             	1846.0      	0.0         	                	;
 Node-32             	1844.0      	0.0         	                	;
 Node-33             	1844.0      	0.0         	                	;
 Node-34             	1843.0      	0.0         	                	;
 Node-35             	1843.0      	0.0         	                	;
 Node-36             	1842.0      	0.0         	                	;
 Node-37             	1842.0      	0.0         	                	;
 Node-38             	1842.0      	0.0         	                	;
 Node-59             	1842.0      	0.0         	                	;
 Node-40             	1842.0      	0.0         	                	;
 Node-41             	1838.0      	0.0         	                	;
 Node-42             	1838.0      	0.0         	                	;
 Node-43             	1838.0      	0.0         	                	;
 Node-44             	1837.0      	0.0         	                	;
 Node-45             	1837.0      	0.0         	                	;
 Node-46             	1839.0      	0.0         	                	;
 Node-47             	1838.0      	0.0         	                	;
 Node-48             	1838.0      	0.0         	                	;
 Node-49             	1837.0      	0.0         	                	;
 Node-50             	1837.0      	0.0         	                	;
 Node-610            	1821.0      	0.0         	                	;
 Node-52             	1821.0      	0.0         	                	;
 Node-53             	1820.0      	0.0         	                	;
 Node-54             	1820.0      	0.0         	                	;
 Node-402            	1865.0      	0.0         	                	;
 Node-631            	1813.0      	0.0         	                	;
 Node-58             	1813.0      	0.0         	                	;
 Node-60             	1839.0      	0.0         	                	;
 Node-61             	1839.0      	0.0         	                	;
 Node-62             	1839.0      	0.0         	                	;
 Node-63             	1836.0      	0.001851852 	                	;
 Node-663            	1836.0      	0.0         	                	;
 Node-65             	1836.0      	0.0         	                	;
 Node-731            	1859.0      	0.0         	                	;
 Node-67             	1860.0      	0.0         	                	;
 Node-68             	1858.0      	0.0         	                	;
 Node-69             	1858.0      	0.0         	                	;
 Node-70             	1858.0      	0.0         	                	;
 Node-312            	1759.0      	0.0         	                	;
 Node-72             	1759.0      	0.0         	                	;
 Node-73             	1758.0      	0.0         	                	;
 Node-74             	1764.0      	0.0         	                	;
 Node-75             	1762.0      	0.0         	                	;
 Node-76             	1766.0      	0.0         	                	;
 Node-78             	1766.0      	0.0         	                	;
 Node-79             	1766.0      	0.0         	                	;
 Node-80             	1768.0      	0.0         	                	;
 Node-81             	1767.0      	0.0         	                	;
 Node-82             	1770.0      	0.0         	                	;
 Node-83             	1769.0      	0.0         	                	;
 Node-84             	1770.0      	0.0         	                	;
 Node-85             	1771.0      	0.0         	                	;
 Node-86             	1771.0      	0.0         	                	;
 Node-87             	1774.0      	0.0         	                	;
 Node-88             	1774.0      	0.0         	                	;
 Node-89             	1774.0      	0.0         	                	;
 Node-90             	1776.0      	0.0         	                	;
 Node-91             	1779.0      	0.0         	                	;
 Node-92             	1781.0      	0.0         	                	;
 Node-93             	1781.0      	0.0         	                	;
 Node-94             	1784.0      	0.0         	                	;
 Node-95             	1783.0      	0.0         	                	;
 Node-96             	1785.0      	0.0         	                	;
 Node-97             	1789.0      	0.0         	                	;
 Node-98             	1789.0      	0.0         	                	;
 Node-99             	1789.0      	0.0         	                	;
 Node-100            	1789.0      	0.0         	                	;
 Node-101            	1789.0      	0.0         	                	;
 Node-102            	1791.0      	0.0         	                	;
 Node-103            	1793.0      	0.0         	                	;
 Node-104            	1795.0      	0.0         	                	;
 Node-105            	1793.0      	0.0         	                	;
 Node-106            	1793.0      	0.0         	                	;
 Node-107            	1799.0      	0.0         	                	;
 Node-108            	1799.0      	0.0         	                	;
 Node-109            	1798.0      	0.0         	                	;
 Node-110            	1802.0      	0.0         	                	;
 Node-111            	1805.0      	0.0         	                	;
 Node-112            	1805.0      	0.0         	                	;
 Node-113            	1806.0      	0.0         	                	;
 Node-114            	1807.0      	0.0         	                	;
 Node-115            	1810.0      	0.0         	                	;
 Node-116            	1812.0      	0.0         	                	;
 Node-117            	1813.0      	0.0         	                	;
 Node-118            	1814.0      	0.0         	                	;
 Node-119            	1814.0      	0.0         	                	;
 Node-120            	1816.0      	0.0         	                	;
 Node-121            	1817.0      	0.0         	                	;
 Node-122            	1818.0      	0.0         	                	;
 Node-123            	1821.0      	0.0         	                	;
 Node-124            	1822.0      	0.0         	                	;
 Node-703            	1823.0      	0.0         	                	;
 Node-126            	1824.0      	0.0         	                	;
 Node-127            	1825.0      	0.0         	                	;
 Node-128            	1826.0      	0.0         	                	;
 Node-129            	1827.0      	0.0         	                	;
 Node-130            	1827.0      	0.0         	                	;
 Node-131            	1829.0      	0.0         	                	;
 Node-132            	1831.0      	0.0         	                	;
 Node-133            	1831.0      	0.0         	                	;
 Node-134            	1832.0      	0.0         	                	;
 Node-135            	1834.0      	0.0         	                	;
 Node-136            	1834.0      	0.0         	                	;
 Node-137            	1835.0      	0.0         	                	;
 Node-138            	1836.0      	0.0         	                	;
 Node-139            	1836.0      	0.0         	                	;
 Node-140            	1837.0      	0.0         	                	;
 Node-141            	1837.0      	0.0         	                	;
 Node-142            	1836.0      	0.0         	                	;
 Node-143            	1837.0      	0.0         	                	;
 Node-145            	1838.0      	0.0         	                	;
 Node-146            	1837.0      	0.0         	                	;
 Node-147            	1838.0      	0.0         	                	;
 Node-148            	1839.0      	0.0         	                	;
 Node-149            	1839.0      	0.0         	                	;
 Node-150            	1840.0      	0.0         	                	;
 Node-151            	1839.0      	0.0         	                	;
 Node-152            	1839.0      	0.0         	                	;
 Node-153            	1843.0      	0.0         	                	;
 Node-154            	1844.0      	0.0         	                	;
 Node-155            	1842.0      	0.0         	                	;
 Node-156            	1842.0      	0.0         	                	;
 Node-157            	1846.0      	0.0         	                	;
 Node-158            	1844.0      	0.0         	                	;
 Node-159            	1847.0      	0.0         	                	;
 Node-160            	1848.0      	0.0         	                	;
 Node-161            	1850.0      	0.0         	                	;
 Node-162            	1850.0      	0.0         	                	;
 Node-163            	1853.0      	0.0         	                	;
 Node-164            	1852.0      	0.0         	                	;
 Node-165            	1854.0      	0.0         	                	;
 Node-166            	1854.0      	0.0         	                	;
 Node-167            	1856.0      	0.0         	                	;
 Node-168            	1855.0      	0.0         	                	;
 Node-169            	1858.0      	0.0         	                	;
 Node-170            	1859.0      	0.0         	                	;
 Node-171            	1861.0      	0.0         	                	;
 Node-172            	1861.0      	0.0         	                	;
 Node-173            	1863.0      	0.0         	                	;
 Node-174            	1864.0      	0.0         	                	;
 Node-175            	1864.0      	0.0         	                	;
 Node-176            	1864.0      	0.0         	                	;
 Node-177            	1864.0      	0.0         	                	;
 Node-178            	1864.0      	0.0         	                	;
 Node-179            	1864.0      	0.0         	                	;
 Node-180            	1866.0      	0.0         	                	;
 Node-181            	1866.0      	0.0         	                	;
 Node-182            	1865.0      	0.0         	                	;
 Node-183            	1865.0      	0.0         	                	;
 Node-707            	1865.0      	0.0         	                	;
 Node-185            	1864.0      	0.0         	                	;
 Node-186            	1864.0      	0.0         	                	;
 Node-187            	1864.0      	0.0         	                	;
 Node-188            	1866.0      	0.0         	                	;
 Node-189            	1866.0      	0.0         	                	;
 Node-190            	1865.0      	0.0         	                	;
 Node-191            	1862.0      	0.0         	                	;
 Node-192            	1862.0      	0.0         	                	;
 Node-193            	1862.0      	0.0         	                	;
 Node-194            	1862.0      	0.0         	                	;
 Node-195            	1862.0      	0.0         	                	;
 Node-196            	1862.0      	0.0         	                	;
 Node-197            	1862.0      	0.0         	                	;
 Node-198            	1862.0      	0.0         	                	;
 Node-199            	1860.0      	0.0         	                	;
 Node-200            	1860.0      	0.0         	                	;
 Node-201            	1860.0      	0.0         	                	;
 Node-202            	1860.0      	0.0         	                	;
 Node-203            	1861.0      	0.0         	                	;
 Node-204            	1861.0      	0.0         	                	;
 Node-205            	1861.0      	0.0         	                	;
 Node-206            	1861.0      	0.0         	                	;
 Node-207            	1860.0      	0.0         	                	;
 Node-208            	1860.0      	0.0         	                	;
 Node-209            	1861.0      	0.0         	                	;
 Node-210            	1862.0      	0.0         	                	;
 Node-211            	1860.0      	0.0         	                	;
 Node-212            	1861.0      	0.0         	                	;
 Node-213            	1859.0      	0.0         	                	;
 Node-214            	1859.0      	0.0         	                	;
 Node-215            	1860.0      	0.0         	                	;
 Node-216            	1860.0      	0.0         	                	;
 Node-217            	1860.0      	0.0         	                	;
 Node-218            	1858.0      	0.0         	                	;
 Node-219            	1859.0      	0.0         	                	;
 Node-220            	1859.0      	0.0         	                	;
 Node-222            	1859.0      	0.0         	                	;
 Node-408            	1859.0      	0.0         	                	;
 Node-225            	1859.0      	0.0         	                	;
 Node-227            	1864.0      	0.0         	                	;
 Node-228            	1862.0      	0.0         	                	;
 Node-229            	1862.0      	0.0         	                	;
 Node-230            	1862.0      	0.0         	                	;
 Node-231            	1859.0      	0.0         	                	;
 Node-232            	1859.0      	0.0         	                	;
 Node-233            	1860.0      	0.0         	                	;
 Node-234            	1860.0      	0.0         	                	;
 Node-235            	1857.0      	0.0         	                	;
 Node-236            	1857.0      	0.0         	                	;
 Node-237            	1856.0      	0.0         	                	;
 Node-238            	1856.0      	0.0         	                	;
 Node-239            	1854.0      	0.0         	                	;
 Node-240            	1855.0      	0.0         	                	;
 Node-241            	1853.0      	0.0         	                	;
 Node-242            	1851.0      	0.0         	                	;
 Node-243            	1851.0      	0.0         	                	;
 Node-244            	1848.0      	0.0         	                	;
 Node-245            	1849.0      	0.0         	                	;
 Node-246            	1848.0      	0.0         	                	;
 Node-247            	1847.0      	0.0         	                	;
 Node-248            	1847.0      	0.0         	                	;
 Node-249            	1846.0      	0.0         	                	;
 Node-250            	1845.0      	0.0         	                	;
 Node-251            	1842.0      	0.0         	                	;
 Node-252            	1841.0      	0.0         	                	;
 Node-253            	1841.0      	0.0         	                	;
 Node-254            	1840.0      	0.0         	                	;
 Node-255            	1839.0      	0.0         	                	;
 Node-256            	1839.0      	0.0         	                	;
 Node-257            	1837.0      	0.0         	                	;
 Node-258            	1836.0      	0.0         	                	;
 Node-259            	1833.0      	0.0         	                	;
 Node-260            	1832.0      	0.0         	                	;
 Node-261            	1830.0      	0.0         	                	;
 Node-262            	1828.0      	0.0         	                	;
 Node-263            	1827.0      	0.0         	                	;
 Node-264            	1825.0      	0.0         	                	;
 Node-265            	1823.0      	0.0         	                	;
 Node-266            	1821.0      	0.0         	                	;
 Node-267            	1819.0      	0.0         	                	;
 Node-268            	1819.0      	0.0         	                	;
 Node-269            	1816.0      	0.0         	                	;
 Node-270            	1816.0      	0.0         	                	;
 Node-271            	1815.0      	0.0         	                	;
 Node-272            	1814.0      	0.0         	                	;
 Node-273            	1814.0      	0.0         	                	;
 Node-274            	1812.0      	0.0         	                	;
 Node-275            	1806.0      	0.0         	                	;
 Node-276            	1808.0      	0.0         	                	;
 Node-277            	1806.0      	0.0         	                	;
 Node-278            	1804.0      	0.0         	                	;
 Node-279            	1800.0      	0.0         	                	;
 Node-280            	1797.0      	0.0         	                	;
 Node-281            	1797.0      	0.0         	                	;
 Node-282            	1793.0      	0.0         	                	;
 Node-283            	1793.0      	0.0         	                	;
 Node-284            	1792.0      	0.0         	                	;
 Node-285            	1791.0      	0.0         	                	;
 Node-286            	1791.0      	0.0         	                	;
 Node-287            	1790.0      	0.0         	                	;
 Node-288            	1786.0      	0.0         	                	;
 Node-289            	1785.0      	0.0         	                	;
 Node-290            	1783.0      	0.0         	                	;
 Node-291            	1780.0      	0.0         	                	;
 Node-292            	1781.0      	0.0         	                	;
 Node-293            	1778.0      	0.0         	                	;
 Node-294            	1774.0      	0.0         	                	;
 Node-295            	1770.0      	0.0         	                	;
 Node-296            	1770.0      	0.0         	                	;
 Node-297            	1768.0      	0.0         	                	;
 Node-298            	1769.0      	0.0         	                	;
 Node-299            	1769.0      	0.0         	                	;
 Node-300            	1769.0      	0.0         	                	;
 Node-301            	1766.0      	0.0         	                	;
 Node-302            	1766.0      	0.0         	                	;
 Node-303            	1766.0      	0.0         	                	;
 Node-304            	1763.0      	0.0         	                	;
 Node-305            	1762.0      	0.0         	                	;
 Node-306            	1761.0      	0.0         	                	;
 Node-307            	1759.0      	0.0         	                	;
 Node-313            	1759.0      	0.0         	                	;
 Node-759            	1754.0      	0.0         	                	;
 Node-310            	1754.0      	0.0         	                	;
 Node-311            	1753.0      	0.0         	                	;
 Node-314            	1759.0      	0.0         	                	;
 Node-315            	1758.0      	0.0         	                	;
 Node-316            	1757.0      	0.0         	                	;
 Node-317            	1754.0      	0.0         	                	;
 Node-318            	1753.0      	0.0         	                	;
 Node-319            	1752.0      	0.0         	                	;
 Node-320            	1752.0      	0.0         	                	;
 Node-321            	1750.0      	0.0         	                	;
 Node-322            	1750.0      	0.0         	                	;
 Node-323            	1747.0      	0.0         	                	;
 Node-324            	1746.0      	0.0         	                	;
 Node-325            	1746.0      	0.0         	                	;
 Node-326            	1745.0      	0.0         	                	;
 Node-327            	1745.0      	0.0         	                	;
 Node-328            	1745.0      	0.0         	                	;
 Node-329            	1743.0      	0.0         	                	;
 Node-330            	1742.0      	0.0         	                	;
 Node-331            	1742.0      	0.0         	                	;
 Node-332            	1741.0      	0.0         	                	;
 Node-333            	1741.0      	0.0         	                	;
 Node-334            	1741.0      	0.0         	                	;
 Node-335            	1740.0      	0.0         	                	;
 Node-336            	1739.0      	0.0         	                	;
 Node-337            	1739.0      	0.0         	                	;
 Node-338            	1738.0      	0.0         	                	;
 Node-339            	1738.0      	0.0         	                	;
 Node-340            	1738.0      	0.0         	                	;
 Node-341            	1738.0      	0.0         	                	;
 Node-342            	1738.0      	0.0         	                	;
 Node-343            	1738.0      	0.0         	                	;
 Node-344            	1738.0      	0.0         	                	;
 Node-345            	1738.0      	0.0         	                	;
 Node-346            	1739.0      	0.0         	                	;
 Node-347            	1739.0      	0.0         	                	;
 Node-348            	1739.0      	0.0         	                	;
 Node-349            	1739.0      	0.0         	                	;
 Node-350            	1739.0      	0.0         	                	;
 Node-732            	1738.0      	0.0         	                	;
 Node-509            	1910.0      	0.0         	                	;
 Node-353            	1908.0      	0.0         	                	;
 Node-354            	1909.0      	0.0         	                	;
 Node-355            	1906.0      	0.0         	                	;
 Node-356            	1903.0      	0.0         	                	;
 Node-357            	1900.0      	0.0         	                	;
 Node-358            	1901.0      	0.0         	                	;
 Node-359            	1903.0      	0.0         	                	;
 Node-360            	1901.0      	0.0         	                	;
 Node-361            	1899.0      	0.0         	                	;
 Node-362            	1898.0      	0.0         	                	;
 Node-363            	1897.0      	0.0         	                	;
 Node-364            	1897.0      	0.0         	                	;
 Node-365            	1896.0      	0.0         	                	;
 Node-366            	1895.0      	0.0         	                	;
 Node-367            	1893.0      	0.0         	                	;
 Node-368            	1895.0      	0.0         	                	;
 Node-369            	1894.0      	0.0         	                	;
 Node-370            	1892.0      	0.0         	                	;
 Node-371            	1891.0      	0.0         	                	;
 Node-372            	1889.0      	0.0         	                	;
 Node-373            	1891.0      	0.0         	                	;
 Node-374            	1890.0      	0.0         	                	;
 Node-375            	1890.0      	0.0         	                	;
 Node-376            	1890.0      	0.0         	                	;
 Node-377            	1889.0      	0.0         	                	;
 Node-378            	1887.0      	0.0         	                	;
 Node-379            	1884.0      	0.0         	                	;
 Node-380            	1885.0      	0.0         	                	;
 Node-381            	1885.0      	0.0         	                	;
 Node-382            	1884.0      	0.0         	                	;
 Node-383            	1881.0      	0.0         	                	;
 Node-384            	1881.0      	0.0         	                	;
 Node-385            	1878.0      	0.0         	                	;
 Node-386            	1875.0      	0.0         	                	;
 Node-387            	1876.0      	0.0         	                	;
 Node-388            	1872.0      	0.0         	                	;
 Node-389            	1869.0      	0.0         	                	;
 Node-390            	1871.0      	0.0         	                	;
 Node-391            	1870.0      	0.0         	                	;
 Node-392            	1870.0      	0.0         	                	;
 Node-393            	1868.0      	0.0         	                	;
 Node-394            	1867.0      	0.0         	                	;
 Node-395            	1867.0      	0.0         	                	;
 Node-396            	1868.0      	0.0         	                	;
 Node-397            	1868.0      	0.0         	                	;
 Node-398            	1868.0      	0.0         	                	;
 Node-399            	1867.0      	0.0         	                	;
 Node-400            	1867.0      	0.0         	                	;
 Node-401            	1865.0      	0.0         	                	;
 Node-410            	1863.0      	0.0         	                	;
 Node-404            	1860.0      	0.0         	                	;
 Node-405            	1860.0      	0.0         	                	;
 Node-406            	1859.0      	0.0         	                	;
 Node-407            	1859.0      	0.0         	                	;
 Node-412            	1989.0      	0.0         	                	;
 Node-413            	1989.0      	0.0         	                	;
 Node-414            	1989.0      	0.0         	                	;
 Node-415            	1990.0      	0.0         	                	;
 Node-416            	1990.0      	0.0         	                	;
 Node-417            	1987.0      	0.0         	                	;
 Node-551            	1984.0      	0.0         	                	;
 Node-420            	1992.0      	0.0         	                	;
 Node-421            	1990.0      	0.0         	                	;
 Node-422            	1990.0      	0.0         	                	;
 Node-423            	1987.0      	0.0         	                	;
 Node-553            	1982.0      	0.0         	                	;
 Node-426            	1982.0      	0.0         	                	;
 Node-427            	1982.0      	0.0         	                	;
 Node-555            	1985.0      	0.0         	                	;
 Node-429            	1979.0      	0.0         	                	;
 Node-430            	1969.0      	0.0         	                	;
 Node-431            	1969.0      	0.0         	                	;
 Node-432            	1966.0      	0.0         	                	;
 Node-433            	1966.0      	0.0         	                	;
 Node-434            	1968.0      	0.0         	                	;
 Node-435            	1966.0      	0.0         	                	;
 Node-436            	1962.0      	0.0         	                	;
 Node-437            	1960.0      	0.0         	                	;
 Node-438            	1965.0      	0.0         	                	;
 Node-439            	1964.0      	0.0         	                	;
 Node-440            	1963.0      	0.0         	                	;
 Node-441            	1964.0      	0.0         	                	;
 Node-442            	1962.0      	0.0         	                	;
 Node-443            	1961.0      	0.0         	                	;
 Node-444            	1959.0      	0.0         	                	;
 Node-445            	1955.0      	0.0         	                	;
 Node-446            	1954.0      	0.0         	                	;
 Node-447            	1954.0      	0.0         	                	;
 Node-448            	1956.0      	0.0         	                	;
 Node-449            	1954.0      	0.0         	                	;
 Node-450            	1952.0      	0.0         	                	;
 Node-451            	1954.0      	0.0         	                	;
 Node-452            	1954.0      	0.0         	                	;
 Node-453            	1953.0      	0.0         	                	;
 Node-454            	1952.0      	0.0         	                	;
 Node-455            	1952.0      	0.0         	                	;
 Node-456            	1948.0      	0.0         	                	;
 Node-457            	1946.0      	0.0         	                	;
 Node-458            	1953.0      	0.0         	                	;
 Node-459            	1950.0      	0.0         	                	;
 Node-460            	1950.0      	0.0         	                	;
 Node-461            	1951.0      	0.0         	                	;