[TITLE]
20429 Gasongati-Gako(HuyeMountainCoffee) WSS in Huye District

[JUNCTIONS]
;ID                  	Elev        	Demand      	Pattern         
 Node-2              	1893.0      	0.0         	                	;
 Node-124            	1889.0      	0.0         	                	;
 Node-70             	1788.0      	0.0         	                	;
 Node-5              	1790.0      	0.0         	                	;
 Node-6              	1790.0      	0.0         	                	;
 Node-7              	1793.0      	0.0         	                	;
 Node-109            	1795.0      	0.0         	                	;
 Node-9              	1796.0      	0.0         	                	;
 Node-10             	1798.0      	0.0         	                	;
 Node-11             	1800.0      	0.0         	                	;
 Node-12             	1801.0      	0.0         	                	;
 Node-13             	1801.0      	0.0         	                	;
 Node-14             	1804.0      	0.0         	                	;
 Node-15             	1806.0      	0.0         	                	;
 Node-16             	1807.0      	0.0         	                	;
 Node-17             	1808.0      	0.0         	                	;
 Node-18             	1812.0      	0.0         	                	;
 Node-19             	1812.0      	0.0         	                	;
 Node-20             	1816.0      	0.0         	                	;
 Node-21             	1817.0      	0.0         	                	;
 Node-22             	1820.0      	0.0         	                	;
 Node-113            	1820.0      	0.0         	                	;
 Node-24             	1820.0      	0.0         	                	;
 Node-25             	1821.0      	0.0         	                	;
 Node-26             	1819.0      	0.0         	                	;
 Node-27             	1821.0      	0.0         	                	;
 Node-28             	1821.0      	0.0         	                	;
 Node-29             	1822.0      	0.0         	                	;
 Node-30             	1823.0      	0.0         	                	;
 Node-31             	1825.0      	0.0         	                	;
 Node-32             	1826.0      	0.0         	                	;
 Node-110            	1826.0      	0.0         	                	;
 Node-34             	1827.0      	0.0         	                	;
 Node-35             	1826.0      	0.0         	                	;
 Node-36             	1825.0      	0.0         	                	;
 Node-37             	1826.0      	0.0         	                	;
 Node-38             	1829.0      	0.0         	                	;
 Node-39             	1829.0      	0.0         	                	;
 Node-40             	1832.0      	0.0         	                	;
 Node-41             	1834.0      	0.0         	                	;
 Node-42             	1834.0      	0.0         	                	;
 Node-43             	1834.0      	0.0         	                	;
 Node-44             	1836.0      	0.0         	                	;
 Node-45             	1835.0      	0.0         	                	;
 Node-46             	1834.0      	0.0         	                	;
 Node-47             	1837.0      	0.0         	                	;
 Node-48             	1838.0      	0.0         	                	;
 Node-49             	1841.0      	0.0         	                	;
 Node-50             	1841.0      	0.0         	                	;
 Node-51             	1849.0      	0.0         	                	;
 Node-52             	1853.0      	0.0         	                	;
 Node-53             	1855.0      	0.0         	                	;
 Node-134            	1857.0      	0.0         	                	;
 Node-56             	1786.0      	0.0         	                	;
 Node-57             	1787.0      	0.0         	                	;
 Node-58             	1787.0      	0.0         	                	;
 Node-59             	1786.0      	0.0         	                	;
 Node-60             	1784.0      	0.324074074 	                	;
 Node-62             	1786.0      	0.046296296 	                	;
 Node-108            	1786.0      	0.0         	                	;
 Node-65             	1787.0      	0.0         	                	;
 Node-66             	1787.0      	0.0         	                	;
 Node-67             	1786.0      	0.0         	                	;
 Node-68             	1784.0      	0.0         	                	;
 Node-77             	1782.0      	0.0         	                	;
 Node-71             	1786.0      	0.0         	                	;
 Node-72             	1786.0      	0.0         	                	;
 Node-73             	1786.0      	0.0         	                	;
 Node-74             	1784.0      	0.0         	                	;
 Node-75             	1781.0      	0.0         	                	;
 Node-76             	1781.0      	0.0         	                	;
 Node-78             	1792.0      	0.00462963  	                	;
 Node-79             	1778.0      	0.046296296 	                	;
 Node-80             	1779.0      	0.0         	                	;
 Node-135            	1780.0      	0.0         	                	;
 Node-83             	1782.0      	0.0         	                	;
 Node-84             	1782.0      	0.0         	                	;
 Node-85             	1782.0      	0.0         	                	;
 Node-86             	1783.0      	0.0         	                	;
 Node-87             	1785.0      	0.0         	                	;
 Node-88             	1785.0      	0.0         	                	;
 Node-89             	1784.0      	0.0         	                	;
 Node-90             	1784.0      	0.0         	                	;
 Node-91             	1783.0      	0.0         	                	;
 Node-92             	1782.0      	0.0         	                	;
 Node-93             	1782.0      	0.0         	                	;
 Node-94             	1781.0      	0.0         	                	;
 Node-95             	1774.0      	0.0         	                	;
 Node-96             	1769.0      	0.0         	                	;
 Node-97             	1764.0      	0.0         	                	;
 Node-98             	1761.0      	0.0         	                	;
 Node-99             	1761.0      	0.0         	                	;
 Node-100            	1763.0      	0.0         	                	;
 Node-101            	1763.0      	0.0         	                	;
 Node-102            	1763.0      	0.0         	                	;
 Node-103            	1763.0      	0.0         	                	;
 Node-104            	1765.0      	0.0         	                	;
 Node-105            	1775.0      	0.0         	                	;
 Node-106            	1779.0      	0.0         	                	;
 Node-107            	1785.0      	0.0         	                	;
 Node-111            	1824.0      	0.0         	                	;
 Node-112            	1824.0      	0.37037037  	                	;
 Node-114            	1819.0      	0.0         	                	;
 Node-115            	1817.0      	0.0         	                	;
 Node-117            	1808.0      	0.0         	                	;
 Node-118            	1804.0      	0.0         	                	;
 Node-119            	1797.0      	0.0         	                	;
 Node-120            	1791.0      	0.006481481 	                	;
 Node-122            	1894.0      	0.0         	                	;
 Node-123            	1892.0      	0.0         	                	;
 Node-125            	1888.0      	0.0         	                	;
 Node-126            	1883.0      	0.0         	                	;
 Node-127            	1879.0      	0.0         	                	;
 Node-128            	1875.0      	0.0         	                	;
 Node-129            	1873.0      	0.0         	                	;
 Node-130            	1868.0      	0.0         	                	;
 Node-131            	1868.0      	0.0         	                	;
 Node-132            	1863.0      	0.0         	                	;
 Node-133            	1860.0      	0.0         	                	;
 Node-136            	1781.0      	0.0         	                	;
 Node-137            	1780.0      	0.0         	                	;
 Node-138            	1779.0      	0.0         	                	;
 Node-141            	1777.0      	0.0         	                	;
 Node-140            	1776.0      	0.00462963  	                	;
 Node-142            	1777.0      	0.0         	                	;
 Node-143            	1776.0      	0.0         	                	;
 Node-144            	1775.0      	0.002777778 	                	;
 Node-146            	1781.0      	0.37037037  	                	;

[RESERVOIRS]
;ID                  	Head        	Pattern         
 Spring-5329         	1897        	                	;
 Spring-5328         	1895        	                	;

[TANKS]
;ID                  	Elevation   	InitLevel   	MinLevel    	MaxLevel    	Diameter    	MinVol      	VolCurve
 Tank-19053          	1782        	0.75        	0.15000000000000002     	1.5         	5           	10.0        	                	;
 Tank-19054          	1787        	0.75        	0.15000000000000002     	1.5         	5           	10.0        	                	;
 Tank-19055          	1815        	0.75        	0.15000000000000002     	1.5         	5           	5.0         	                	;

[PIPES]
;ID                  	Node1               	Node2               	Length      	Diameter    	Roughness   	MinorLoss   	Status
 Pipe-109177-0       	Spring-5328         	Node-2              	8.548       	50          	100         	0           	Open  	;
 Pipe-109177-1       	Node-2              	Node-124            	10.102      	50          	100         	0           	Open  	;
 Pipe-109168-0       	Node-70             	Node-5              	14.583      	50          	100         	0           	Open  	;
 Pipe-109168-1       	Node-5              	Node-6              	7.866       	50          	100         	0           	Open  	;
 Pipe-109168-2       	Node-6              	Node-7              	6.788       	50          	100         	0           	Open  	;
 Pipe-109168-3       	Node-7              	Node-109            	14.695      	50          	100         	0           	Open  	;
 Pipe-109168-4       	Node-109            	Node-9              	12.686      	50          	100         	0           	Open  	;
 Pipe-109168-5       	Node-9              	Node-10             	17.738      	50          	100         	0           	Open  	;
 Pipe-109168-6       	Node-10             	Node-11             	14.375      	50          	100         	0           	Open  	;
 Pipe-109168-7       	Node-11             	Node-12             	14.5        	50          	100         	0           	Open  	;
 Pipe-109168-8       	Node-12             	Node-13             	24.431      	50          	100         	0           	Open  	;
 Pipe-109168-9       	Node-13             	Node-14             	32.491      	50          	100         	0           	Open  	;
 Pipe-109168-10      	Node-14             	Node-15             	42.204      	50          	100         	0           	Open  	;
 Pipe-109168-11      	Node-15             	Node-16             	17.515      	50          	100         	0           	Open  	;
 Pipe-109168-12      	Node-16             	Node-17             	24.743      	50          	100         	0           	Open  	;
 Pipe-109168-13      	Node-17             	Node-18             	29.839      	50          	100         	0           	Open  	;
 Pipe-109168-14      	Node-18             	Node-19             	33.049      	50          	100         	0           	Open  	;
 Pipe-109168-15      	Node-19             	Node-20             	35.178      	50          	100         	0           	Open  	;
 Pipe-109168-16      	Node-20             	Node-21             	20.008      	50          	100         	0           	Open  	;
 Pipe-109168-17      	Node-21             	Node-22             	20.765      	50          	100         	0           	Open  	;
 Pipe-109168-18      	Node-22             	Node-113            	22.478      	50          	100         	0           	Open  	;
 Pipe-109168-19      	Node-113            	Node-24             	24.713      	50          	100         	0           	Open  	;
 Pipe-109168-20      	Node-24             	Node-25             	44.223      	50          	100         	0           	Open  	;
 Pipe-109168-21      	Node-25             	Node-26             	36.067      	50          	100         	0           	Open  	;
 Pipe-109168-22      	Node-26             	Node-27             	41.977      	50          	100         	0           	Open  	;
 Pipe-109168-23      	Node-27             	Node-28             	35.543      	50          	100         	0           	Open  	;
 Pipe-109168-24      	Node-28             	Node-29             	40.098      	50          	100         	0           	Open  	;
 Pipe-109168-25      	Node-29             	Node-30             	34.268      	50          	100         	0           	Open  	;
 Pipe-109168-26      	Node-30             	Node-31             	30.076      	50          	100         	0           	Open  	;
 Pipe-109168-27      	Node-31             	Node-32             	38.049      	50          	100         	0           	Open  	;
 Pipe-109168-28      	Node-32             	Node-110            	30.781      	50          	100         	0           	Open  	;
 Pipe-109168-29      	Node-110            	Node-34             	25.402      	50          	100         	0           	Open  	;
 Pipe-109168-30      	Node-34             	Node-35             	42.167      	50          	100         	0           	Open  	;
 Pipe-109168-31      	Node-35             	Node-36             	54.468      	50          	100         	0           	Open  	;
 Pipe-109168-32      	Node-36             	Node-37             	49.676      	50          	100         	0           	Open  	;
 Pipe-109168-33      	Node-37             	Node-38             	34.177      	50          	100         	0           	Open  	;
 Pipe-109168-34      	Node-38             	Node-39             	32.771      	50          	100         	0           	Open  	;
 Pipe-109168-35      	Node-39             	Node-40             	34.554      	50          	100         	0           	Open  	;
 Pipe-109168-36      	Node-40             	Node-41             	33.669      	50          	100         	0           	Open  	;
 Pipe-109168-37      	Node-41             	Node-42             	31.97       	50          	100         	0           	Open  	;
 Pipe-109168-38      	Node-42             	Node-43             	29.559      	50          	100         	0           	Open  	;
 Pipe-109168-39      	Node-43             	Node-44             	33.373      	50          	100         	0           	Open  	;
 Pipe-109168-40      	Node-44             	Node-45             	31.168      	50          	100         	0           	Open  	;
 Pipe-109168-41      	Node-45             	Node-46             	29.262      	50          	100         	0           	Open  	;
 Pipe-109168-42      	Node-46             	Node-47             	32.688      	50          	100         	0           	Open  	;
 Pipe-109168-43      	Node-47             	Node-48             	36.678      	50          	100         	0           	Open  	;
 Pipe-109168-44      	Node-48             	Node-49             	37.622      	50          	100         	0           	Open  	;
 Pipe-109168-45      	Node-49             	Node-50             	35.001      	50          	100         	0           	Open  	;
 Pipe-109168-46      	Node-50             	Node-51             	36.738      	50          	100         	0           	Open  	;
 Pipe-109168-47      	Node-51             	Node-52             	35.373      	50          	100         	0           	Open  	;
 Pipe-109168-48      	Node-52             	Node-53             	25.437      	50          	100         	0           	Open  	;
 Pipe-109168-49      	Node-53             	Node-134            	21.035      	50          	100         	0           	Open  	;
 Pipe-109169-0       	Tank-19054          	Node-56             	4.731       	50          	100         	0           	Open  	;
 Pipe-109169-1       	Node-56             	Node-57             	17.406      	50          	100         	0           	Open  	;
 Pipe-109169-2       	Node-57             	Node-58             	33.904      	50          	100         	0           	Open  	;
 Pipe-109169-3       	Node-58             	Node-59             	29.001      	50          	100         	0           	Open  	;
 Pipe-109169-4       	Node-59             	Node-60             	3.209       	50          	100         	0           	Open  	;
 Pipe-109170-0       	Tank-19054          	Node-62             	12.088      	50          	100         	0           	Open  	;
 Pipe-109171-0       	Tank-19054          	Node-108            	4.779       	50          	100         	0           	Open  	;
 Pipe-109171-1       	Node-108            	Node-65             	17.148      	50          	100         	0           	Open  	;
 Pipe-109171-2       	Node-65             	Node-66             	33.89       	50          	100         	0           	Open  	;
 Pipe-109171-3       	Node-66             	Node-67             	28.766      	50          	100         	0           	Open  	;
 Pipe-109171-4       	Node-67             	Node-68             	32.501      	50          	100         	0           	Open  	;
 Pipe-109171-5       	Node-68             	Node-77             	21.644      	50          	100         	0           	Open  	;
 Pipe-109172-0       	Node-70             	Node-71             	10.145      	50          	100         	0           	Open  	;
 Pipe-109172-1       	Node-71             	Node-72             	1.75        	50          	100         	0           	Open  	;
 Pipe-109172-2       	Node-72             	Node-73             	1.322       	50          	100         	0           	Open  	;
 Pipe-109172-3       	Node-73             	Node-74             	12.722      	50          	100         	0           	Open  	;
 Pipe-109172-4       	Node-74             	Node-75             	2.652       	50          	100         	0           	Open  	;
 Pipe-109172-5       	Node-75             	Node-76             	2.058       	50          	100         	0           	Open  	;
 Pipe-109172-6       	Node-76             	Node-77             	19.223      	50          	100         	0           	Open  	;
 Pipe-109173-0       	Node-78             	Node-109            	20.163      	25          	100         	0           	Open  	;
 Pipe-109174-0       	Node-110            	Node-111            	7.279       	25          	100         	0           	Open  	;
 Pipe-109174-1       	Node-111            	Node-112            	6.662       	25          	100         	0           	Open  	;
 Pipe-109175-0       	Node-113            	Node-114            	23.489      	32          	100         	0           	Open  	;
 Pipe-109175-1       	Node-114            	Node-115            	22.881      	32          	100         	0           	Open  	;
 Pipe-109175-2       	Node-115            	Tank-19055          	18.998      	32          	100         	0           	Open  	;
 Pipe-109175-3       	Tank-19055          	Node-117            	32.724      	32          	100         	0           	Open  	;
 Pipe-109175-4       	Node-117            	Node-118            	26.297      	32          	100         	0           	Open  	;
 Pipe-109175-5       	Node-118            	Node-119            	27.711      	32          	100         	0           	Open  	;
 Pipe-109175-6       	Node-119            	Node-120            	23.952      	32          	100         	0           	Open  	;
 Pipe-109176-0       	Spring-5329         	Node-122            	8.944       	63          	100         	0           	Open  	;
 Pipe-109176-1       	Node-122            	Node-123            	9.177       	63          	100         	0           	Open  	;
 Pipe-109176-2       	Node-123            	Node-124            	8.182       	63          	100         	0           	Open  	;
 Pipe-109176-3       	Node-124            	Node-125            	17.617      	63          	100         	0           	Open  	;
 Pipe-109176-4       	Node-125            	Node-126            	18.437      	63          	100         	0           	Open  	;
 Pipe-109176-5       	Node-126            	Node-127            	20.004      	63          	100         	0           	Open  	;
 Pipe-109176-6       	Node-127            	Node-128            	18.089      	63          	100         	0           	Open  	;
 Pipe-109176-7       	Node-128            	Node-129            	20.813      	63          	100         	0           	Open  	;
 Pipe-109176-8       	Node-129            	Node-130            	20.176      	63          	100         	0           	Open  	;
 Pipe-109176-9       	Node-130            	Node-131            	19.507      	63          	100         	0           	Open  	;
 Pipe-109176-10      	Node-131            	Node-132            	11.07       	63          	100         	0           	Open  	;
 Pipe-109176-11      	Node-132            	Node-133            	8.375       	63          	100         	0           	Open  	;
 Pipe-109176-12      	Node-133            	Node-134            	16.203      	63          	100         	0           	Open  	;
 Pipe-109178-0       	Node-135            	Node-136            	14.795      	25          	100         	0           	Open  	;
 Pipe-109178-1       	Node-136            	Node-137            	25.175      	25          	100         	0           	Open  	;
 Pipe-109178-2       	Node-137            	Node-138            	24.428      	25          	100         	0           	Open  	;
 Pipe-109178-3       	Node-138            	Node-141            	7.252       	25          	100         	0           	Open  	;
 Pipe-109178-4       	Node-141            	Node-140            	10.97       	25          	100         	0           	Open  	;
 Pipe-109179-0       	Node-141            	Node-142            	11.399      	25          	100         	0           	Open  	;
 Pipe-109179-1       	Node-142            	Node-143            	13.114      	25          	100         	0           	Open  	;
 Pipe-109179-2       	Node-143            	Node-144            	8.207       	25          	100         	0           	Open  	;
 Pipe-109180-0       	Tank-19053          	Node-146            	24.774      	40          	100         	0           	Open  	;
 Pipe-109181-0       	Node-79             	Node-80             	6.176       	40          	100         	0           	Open  	;
 Pipe-109181-1       	Node-80             	Node-135            	14.433      	40          	100         	0           	Open  	;
 Pipe-109181-2       	Node-135            	Tank-19053          	2.207       	40          	100         	0           	Open  	;
 Pipe-109181-3       	Tank-19053          	Node-83             	3.382       	40          	100         	0           	Open  	;
 Pipe-109181-4       	Node-83             	Node-84             	5.926       	40          	100         	0           	Open  	;
 Pipe-109181-5       	Node-84             	Node-85             	17.831      	40          	100         	0           	Open  	;
 Pipe-109181-6       	Node-85             	Node-86             	39.378      	40          	100         	0           	Open  	;
 Pipe-109181-7       	Node-86             	Node-87             	46.97       	40          	100         	0           	Open  	;
 Pipe-109181-8       	Node-87             	Node-88             	47.051      	40          	100         	0           	Open  	;
 Pipe-109181-9       	Node-88             	Node-89             	53.905      	40          	100         	0           	Open  	;
 Pipe-109181-10      	Node-89             	Node-90             	29.275      	40          	100         	0           	Open  	;
 Pipe-109181-11      	Node-90             	Node-91             	32.666      	40          	100         	0           	Open  	;
 Pipe-109181-12      	Node-91             	Node-92             	25.705      	40          	100         	0           	Open  	;
 Pipe-109181-13      	Node-92             	Node-93             	23.767      	40          	100         	0           	Open  	;
 Pipe-109181-14      	Node-93             	Node-94             	15.277      	40          	100         	0           	Open  	;
 Pipe-109181-15      	Node-94             	Node-95             	36.331      	40          	100         	0           	Open  	;
 Pipe-109181-16      	Node-95             	Node-96             	23.802      	40          	100         	0           	Open  	;
 Pipe-109181-17      	Node-96             	Node-97             	32.465      	40          	100         	0           	Open  	;
 Pipe-109181-18      	Node-97             	Node-98             	46.192      	40          	100         	0           	Open  	;
 Pipe-109181-19      	Node-98             	Node-99             	49.925      	40          	100         	0           	Open  	;
 Pipe-109181-20      	Node-99             	Node-100            	52.288      	40          	100         	0           	Open  	;
 Pipe-109181-21      	Node-100            	Node-101            	47.729      	40          	100         	0           	Open  	;
 Pipe-109181-22      	Node-101            	Node-102            	43.531      	40          	100         	0           	Open  	;
 Pipe-109181-23      	Node-102            	Node-103            	25.106      	40          	100         	0           	Open  	;
 Pipe-109181-24      	Node-103            	Node-104            	23.245      	40          	100         	0           	Open  	;
 Pipe-109181-25      	Node-104            	Node-105            	25.368      	40          	100         	0           	Open  	;
 Pipe-109181-26      	Node-105            	Node-106            	18.994      	40          	100         	0           	Open  	;
 Pipe-109181-27      	Node-106            	Node-107            	24.344      	40          	100         	0           	Open  	;

[PUMPS]
;ID                  	Node1               	Node2               	Parameters  

[VALVES]
;ID                  	Node1           	Node2           	Diameter    	Type        	Setting     	MinorLoss   
 TCV-24138           	Node-107            	Node-108            	50.0        	TCV         	0           	0.0         	;

[TAGS]

[DEMANDS]
;Junction        	Demand      	Pattern         	Category

[STATUS]
;ID              	Status/Setting

[PATTERNS]
;ID              	Multipliers

[CURVES]
;ID              	X-Value     	Y-Value     

[CONTROLS]

[RULES]

[ENERGY]
 Global Efficiency  	75
 Global Price       	0
 Demand Charge      	0

[EMITTERS]
;Junction        	Coefficient

[QUALITY]
;Node            	InitQual

[SOURCES]
;Node            	Type        	Quality     	Pattern

[REACTIONS]
;Type     	Pipe/Tank       	Coefficient


[REACTIONS]
 Order Bulk            	1
 Order Tank            	1
 Order Wall            	1
 Global Bulk           	0
 Global Wall           	0
 Limiting Potential    	0
 Roughness Correlation 	0

[MIXING]
;Tank            	Model

[TIMES]
 Duration           	0
 Hydraulic Timestep 	1:00
 Quality Timestep   	0:05
 Pattern Timestep   	1:00
 Pattern Start      	0:00
 Report Timestep    	1:00
 Report Start       	0:00
 Start ClockTime    	12 am
 Statistic          	None

[REPORT]
 Status             	No
 Summary            	No
 Page               	0

[OPTIONS]
 Units              	LPS
 Headloss           	H-W
 Specific Gravity   	1
 Viscosity          	1
 Trials             	40
 Accuracy           	0.001
 CHECKFREQ          	2
 MAXCHECK           	10
 DAMPLIMIT          	0
 Unbalanced         	Continue 10
 Pattern            	0
 Demand Multiplier  	1.0
 Emitter Exponent   	0.5
 Quality            	None mg/L
 Diffusivity        	1
 Tolerance          	0.01

[COORDINATES]
;Node                	X-Coord         	Y-Coord         
 Node-2              	29.687016       	-2.55735        
 Node-124            	29.687075       	-2.557281       
 Node-70             	29.693527       	-2.547766       
 Node-5              	29.693614       	-2.547865       
 Node-6              	29.693651       	-2.547925       
 Node-7              	29.69367        	-2.547983       
 Node-109            	29.693689       	-2.548115       
 Node-9              	29.693705       	-2.548228       
 Node-10             	29.693755       	-2.54838        
 Node-11             	29.69383        	-2.548486       
 Node-12             	29.693922       	-2.548579       
 Node-13             	29.694088       	-2.548723       
 Node-14             	29.694306       	-2.548918       
 Node-15             	29.694606       	-2.549151       
 Node-16             	29.694736       	-2.549239       
 Node-17             	29.694924       	-2.549359       
 Node-18             	29.695155       	-2.549496       
 Node-19             	29.695411       	-2.549646       
 Node-20             	29.695673       	-2.549824       
 Node-21             	29.695768       	-2.549977       
 Node-22             	29.695792       	-2.550163       
 Node-113            	29.695742       	-2.55036        
 Node-24             	29.695566       	-2.550496       
 Node-25             	29.695212       	-2.550677       
 Node-26             	29.694924       	-2.550827       
 Node-27             	29.694587       	-2.550995       
 Node-28             	29.694305       	-2.551146       
 Node-29             	29.693991       	-2.551324       
 Node-30             	29.693727       	-2.551483       
 Node-31             	29.693489       	-2.551612       
 Node-32             	29.693193       	-2.551784       
 Node-110            	29.692965       	-2.551941       
 Node-34             	29.692785       	-2.552082       
 Node-35             	29.692492       	-2.552323       
 Node-36             	29.692111       	-2.552631       
 Node-37             	29.691753       	-2.552899       
 Node-38             	29.691512       	-2.55309        
 Node-39             	29.691282       	-2.553275       
 Node-40             	29.691033       	-2.553461       