[TITLE]
20434 Mbazi(FrereFranciscainMbazi) WSS in Huye District

[JUNCTIONS]
;ID                  	Elev        	Demand      	Pattern         
 Node-175            	1730.0      	0.0         	                	;
 Node-2              	1730.0      	0.231481481 	                	;
 Node-3              	1748.0      	0.0         	                	;
 Node-4              	1747.0      	0.0         	                	;
 Node-695            	1747.0      	0.0         	                	;
 Node-286            	1751.0      	0.0         	                	;
 Node-7              	1750.0      	0.0         	                	;
 Node-8              	1750.0      	0.005555556 	                	;
 Node-9              	1734.0      	0.00462963  	                	;
 Node-10             	1735.0      	0.0         	                	;
 Node-94             	1736.0      	0.0         	                	;
 Node-12             	1737.0      	0.0         	                	;
 Node-1088           	1737.0      	0.0         	                	;
 Node-278            	1737.0      	0.0         	                	;
 Node-16             	1678.0      	0.0         	                	;
 Node-17             	1678.0      	0.0         	                	;
 Node-19             	1678.0      	0.0         	                	;
 Node-20             	1678.0      	0.0         	                	;
 Node-21             	1677.0      	0.0         	                	;
 Node-22             	1676.0      	0.0         	                	;
 Node-23             	1675.0      	0.0         	                	;
 Node-24             	1674.0      	0.0         	                	;
 Node-25             	1672.0      	0.0         	                	;
 Node-26             	1671.0      	0.0         	                	;
 Node-27             	1670.0      	0.0         	                	;
 Node-28             	1670.0      	0.0         	                	;
 Node-29             	1670.0      	0.0         	                	;
 Node-30             	1669.0      	0.0         	                	;
 Node-31             	1669.0      	0.0         	                	;
 Node-32             	1669.0      	0.0         	                	;
 Node-33             	1668.0      	0.0         	                	;
 Node-34             	1667.0      	0.0         	                	;
 Node-35             	1665.0      	0.0         	                	;
 Node-36             	1664.0      	0.0         	                	;
 Node-37             	1663.0      	0.0         	                	;
 Node-38             	1663.0      	0.0         	                	;
 Node-39             	1663.0      	0.0         	                	;
 Node-40             	1663.0      	0.0         	                	;
 Node-41             	1663.0      	0.0         	                	;
 Node-42             	1663.0      	0.0         	                	;
 Node-43             	1662.0      	0.0         	                	;
 Node-44             	1662.0      	0.0         	                	;
 Node-45             	1662.0      	0.0         	                	;
 Node-46             	1662.0      	0.0         	                	;
 Node-47             	1662.0      	0.0         	                	;
 Node-48             	1662.0      	0.0         	                	;
 Node-49             	1662.0      	0.0         	                	;
 Node-50             	1661.0      	0.0         	                	;
 Node-51             	1662.0      	0.0         	                	;
 Node-52             	1661.0      	0.0         	                	;
 Node-53             	1661.0      	0.0         	                	;
 Node-54             	1661.0      	0.0         	                	;
 Node-1082           	1661.0      	0.0         	                	;
 Node-1087           	1661.0      	0.0         	                	;
 Node-57             	1663.0      	0.0         	                	;
 Node-58             	1663.0      	0.0         	                	;
 Node-59             	1665.0      	0.0         	                	;
 Node-60             	1666.0      	0.0         	                	;
 Node-61             	1671.0      	0.0         	                	;
 Node-62             	1676.0      	0.0         	                	;
 Node-1119           	1679.0      	0.0         	                	;
 Node-65             	1702.0      	0.0         	                	;
 Node-66             	1701.0      	0.0         	                	;
 Node-67             	1700.0      	0.016666667 	                	;
 Node-69             	1705.0      	0.0         	                	;
 Node-86             	1707.0      	0.0         	                	;
 Node-72             	1698.0      	0.018518519 	                	;
 Node-74             	1701.0      	0.0         	                	;
 Node-75             	1701.0      	0.0         	                	;
 Node-76             	1701.0      	0.0         	                	;
 Node-77             	1701.0      	0.0         	                	;
 Node-78             	1701.0      	0.0         	                	;
 Node-79             	1703.0      	0.0         	                	;
 Node-148            	1703.0      	0.0         	                	;
 Node-81             	1705.0      	0.0         	                	;
 Node-82             	1705.0      	0.0         	                	;
 Node-83             	1705.0      	0.0         	                	;
 Node-84             	1707.0      	0.0         	                	;
 Node-85             	1707.0      	0.0         	                	;
 Node-87             	1705.0      	0.0         	                	;
 Node-88             	1703.0      	0.0         	                	;
 Node-89             	1701.0      	0.0         	                	;
 Node-90             	1698.0      	0.0         	                	;
 Node-91             	1745.0      	0.00462963  	                	;
 Node-92             	1746.0      	0.0         	                	;
 Node-281            	1746.0      	0.0         	                	;
 Node-95             	1734.0      	0.0         	                	;
 Node-96             	1732.0      	0.0         	                	;
 Node-97             	1730.0      	0.0         	                	;
 Node-302            	1735.0      	0.0         	                	;
 Node-99             	1733.0      	0.0         	                	;
 Node-100            	1734.0      	0.003703704 	                	;
 Node-102            	1748.0      	0.0         	                	;
 Node-103            	1748.0      	0.0         	                	;
 Node-383            	1748.0      	0.0         	                	;
 Node-105            	1747.0      	0.0         	                	;
 Node-106            	1747.0      	0.0         	                	;
 Node-107            	1747.0      	0.0         	                	;
 Node-108            	1747.0      	0.0         	                	;
 Node-109            	1746.0      	0.0         	                	;
 Node-110            	1745.0      	0.0         	                	;
 Node-111            	1744.0      	0.0         	                	;
 Node-648            	1744.0      	0.0         	                	;
 Node-113            	1743.0      	0.0         	                	;
 Node-114            	1742.0      	0.0         	                	;
 Node-115            	1741.0      	0.0         	                	;
 Node-116            	1740.0      	0.0         	                	;
 Node-117            	1740.0      	0.0         	                	;
 Node-633            	1740.0      	0.0         	                	;
 Node-119            	1739.0      	0.0         	                	;
 Node-120            	1738.0      	0.0         	                	;
 Node-626            	1739.0      	0.0         	                	;
 Node-122            	1739.0      	0.0         	                	;
 Node-123            	1738.0      	0.0         	                	;
 Node-124            	1738.0      	0.0         	                	;
 Node-125            	1737.0      	0.0         	                	;
 Node-126            	1736.0      	0.0         	                	;
 Node-127            	1736.0      	0.0         	                	;
 Node-128            	1736.0      	0.0         	                	;
 Node-615            	1734.0      	0.0         	                	;
 Node-130            	1733.0      	0.0         	                	;
 Node-600            	1730.0      	0.0         	                	;
 Node-132            	1727.0      	0.0         	                	;
 Node-133            	1724.0      	0.0         	                	;
 Node-134            	1722.0      	0.0         	                	;
 Node-571            	1720.0      	0.0         	                	;
 Node-136            	1719.0      	0.0         	                	;
 Node-565            	1717.0      	0.0         	                	;
 Node-138            	1716.0      	0.0         	                	;
 Node-139            	1713.0      	0.0         	                	;
 Node-140            	1713.0      	0.0         	                	;
 Node-141            	1711.0      	0.0         	                	;
 Node-142            	1711.0      	0.0         	                	;
 Node-143            	1709.0      	0.0         	                	;
 Node-144            	1706.0      	0.0         	                	;
 Node-145            	1704.0      	0.0         	                	;
 Node-146            	1704.0      	0.0         	                	;
 Node-147            	1703.0      	0.0         	                	;
 Node-149            	1729.0      	0.231481481 	                	;
 Node-594            	1729.0      	0.0         	                	;
 Node-584            	1730.0      	0.0         	                	;
 Node-152            	1732.0      	0.0         	                	;
 Node-153            	1732.0      	0.0         	                	;
 Node-154            	1733.0      	0.0         	                	;
 Node-155            	1735.0      	0.0         	                	;
 Node-595            	1737.0      	0.0         	                	;
 Node-157            	1737.0      	0.0         	                	;
 Node-528            	1738.0      	0.0         	                	;
 Node-159            	1740.0      	0.324074074 	                	;
 Node-227            	1740.0      	0.0         	                	;
 Node-161            	1720.0      	0.37037037  	                	;
 Node-997            	1721.0      	0.0         	                	;
 Node-163            	1721.0      	0.0         	                	;
 Node-164            	1722.0      	0.0         	                	;
 Node-165            	1724.0      	0.0         	                	;
 Node-994            	1725.0      	0.0         	                	;
 Node-167            	1726.0      	0.0         	                	;
 Node-1077           	1727.0      	0.0         	                	;
 Node-1016           	1727.0      	0.0         	                	;
 Node-170            	1727.0      	0.0         	                	;
 Node-171            	1728.0      	0.0         	                	;
 Node-1068           	1728.0      	0.0         	                	;
 Node-173            	1729.0      	0.0         	                	;
 Node-174            	1730.0      	0.0         	                	;
 Node-988            	1730.0      	0.0         	                	;
 Node-177            	1731.0      	0.0         	                	;
 Node-985            	1732.0      	0.0         	                	;
 Node-179            	1732.0      	0.0         	                	;
 Node-180            	1733.0      	0.0         	                	;
 Node-212            	1698.0      	0.0         	                	;
 Node-183            	1701.0      	0.0         	                	;
 Node-184            	1702.0      	0.0         	                	;
 Node-1107           	1703.0      	0.0         	                	;
 Node-186            	1706.0      	0.0         	                	;
 Node-187            	1706.0      	0.0         	                	;
 Node-188            	1709.0      	0.0         	                	;
 Node-189            	1711.0      	0.0         	                	;
 Node-190            	1713.0      	0.0         	                	;
 Node-191            	1715.0      	0.0         	                	;
 Node-192            	1715.0      	0.0         	                	;
 Node-1038           	1716.0      	0.0         	                	;
 Node-194            	1720.0      	0.0         	                	;
 Node-1073           	1721.0      	0.0         	                	;
 Node-1110           	1724.0      	0.0         	                	;
 Node-197            	1726.0      	0.0         	                	;
 Node-198            	1728.0      	0.0         	                	;
 Node-199            	1729.0      	0.0         	                	;
 Node-200            	1732.0      	0.0         	                	;
 Node-201            	1732.0      	0.0         	                	;
 Node-202            	1733.0      	0.0         	                	;
 Node-204            	1680.0      	0.231481481 	                	;
 Node-1039           	1682.0      	0.0         	                	;
 Node-206            	1684.0      	0.0         	                	;
 Node-207            	1686.0      	0.0         	                	;
 Node-208            	1689.0      	0.0         	                	;
 Node-209            	1692.0      	0.0         	                	;
 Node-210            	1692.0      	0.0         	                	;
 Node-211            	1695.0      	0.0         	                	;
 Node-214            	1748.0      	0.0         	                	;
 Node-274            	1748.0      	0.0         	                	;
 Node-216            	1747.0      	0.0         	                	;
 Node-217            	1747.0      	0.0         	                	;
 Node-218            	1747.0      	0.0         	                	;
 Node-678            	1746.0      	0.0         	                	;
 Node-220            	1745.0      	0.0         	                	;
 Node-221            	1745.0      	0.0         	                	;
 Node-654            	1744.0      	0.0         	                	;
 Node-223            	1743.0      	0.0         	                	;
 Node-643            	1743.0      	0.0         	                	;
 Node-647            	1742.0      	0.0         	                	;
 Node-639            	1741.0      	0.0         	                	;
 Node-228            	1739.0      	0.0         	                	;
 Node-229            	1738.0      	0.0         	                	;
 Node-230            	1738.0      	0.0         	                	;
 Node-273            	1738.0      	0.0         	                	;
 Node-232            	1738.0      	0.0         	                	;
 Node-233            	1738.0      	0.0         	                	;
 Node-234            	1737.0      	0.0         	                	;
 Node-235            	1737.0      	0.0         	                	;
 Node-236            	1736.0      	0.0         	                	;
 Node-237            	1734.0      	0.0         	                	;
 Node-238            	1734.0      	0.0         	                	;
 Node-958            	1734.0      	0.0         	                	;
 Node-263            	1734.0      	0.0         	                	;
 Node-962            	1734.0      	0.0         	                	;
 Node-242            	1734.0      	0.0         	                	;
 Node-979            	1734.0      	0.0         	                	;
 Node-244            	1733.0      	0.0         	                	;
 Node-245            	1733.0      	0.0         	                	;
 Node-246            	1732.0      	0.0         	                	;
 Node-247            	1732.0      	0.0         	                	;
 Node-248            	1732.0      	0.0         	                	;
 Node-970            	1733.0      	0.0         	                	;
 Node-250            	1733.0      	0.0         	                	;
 Node-251            	1733.0      	0.0         	                	;
 Node-253            	1717.0      	0.231481481 	                	;
 Node-969            	1719.0      	0.0         	                	;
 Node-255            	1723.0      	0.0         	                	;
 Node-256            	1726.0      	0.0         	                	;
 Node-257            	1729.0      	0.0         	                	;
 Node-959            	1730.0      	0.0         	                	;
 Node-975            	1732.0      	0.0         	                	;
 Node-260            	1733.0      	0.0         	                	;
 Node-261            	1734.0      	0.0         	                	;
 Node-981            	1734.0      	0.0         	                	;
 Node-264            	1720.0      	0.166666667 	                	;
 Node-956            	1722.0      	0.0         	                	;
 Node-950            	1724.0      	0.0         	                	;
 Node-267            	1727.0      	0.0         	                	;
 Node-949            	1729.0      	0.0         	                	;
 Node-269            	1731.0      	0.0         	                	;
 Node-270            	1735.0      	0.0         	                	;
 Node-942            	1736.0      	0.0         	                	;
 Node-272            	1737.0      	0.0         	                	;
 Node-295            	1748.0      	0.0         	                	;
 Node-276            	1749.0      	0.0         	                	;
 Node-277            	1737.0      	0.166666667 	                	;
 Node-279            	1740.0      	0.0         	                	;
 Node-1122           	1742.0      	0.0         	                	;
 Node-282            	1748.0      	0.0         	                	;
 Node-283            	1749.0      	0.0         	                	;
 Node-284            	1750.0      	0.0         	                	;
 Node-285            	1750.0      	0.0         	                	;
 Node-287            	1750.0      	0.0         	                	;
 Node-288            	1751.0      	0.0         	                	;
 Node-289            	1750.0      	0.0         	                	;
 Node-290            	1750.0      	0.0         	                	;
 Node-291            	1750.0      	0.0         	                	;
 Node-292            	1749.0      	0.0         	                	;
 Node-293            	1749.0      	0.0         	                	;
 Node-294            	1749.0      	0.0         	                	;
 Node-296            	1728.0      	0.231481481 	                	;
 Node-297            	1728.0      	0.0         	                	;
 Node-298            	1728.0      	0.0         	                	;
 Node-299            	1728.0      	0.0         	                	;
 Node-300            	1730.0      	0.0         	                	;
 Node-301            	1732.0      	0.0         	                	;
 Node-509            	1736.0      	0.0         	                	;
 Node-304            	1738.0      	0.0         	                	;
 Node-305            	1741.0      	0.0         	                	;
 Node-306            	1743.0      	0.0         	                	;
 Node-307            	1746.0      	0.0         	                	;
 Node-310            	1748.0      	0.0         	                	;
 Node-379            	1749.0      	0.0         	                	;
 Node-311            	1747.0      	0.013888889 	                	;
 Node-312            	1736.0      	0.37037037  	                	;
 Node-860            	1736.0      	0.0         	                	;
 Node-314            	1737.0      	0.0         	                	;
 Node-315            	1741.0      	0.0         	                	;
 Node-854            	1745.0      	0.0         	                	;
 Node-317            	1749.0      	0.0         	                	;
 Node-318            	1752.0      	0.0         	                	;
 Node-319            	1755.0      	0.0         	                	;
 Node-320            	1758.0      	0.0         	                	;
 Node-321            	1761.0      	0.0         	                	;
 Node-322            	1762.0      	0.0         	                	;
 Node-905            	1763.0      	0.0         	                	;
 Node-324            	1765.0      	0.0         	                	;
 Node-886            	1766.0      	0.0         	                	;
 Node-902            	1766.0      	0.0         	                	;
 Node-327            	1766.0      	0.0         	                	;
 Node-892            	1766.0      	0.0         	                	;
 Node-899            	1765.0      	0.0         	                	;
 Node-330            	1765.0      	0.0         	                	;
 Node-331            	1764.0      	0.0         	                	;
 Node-559            	1764.0      	0.0         	                	;
 Node-333            	1745.0      	0.166666667 	                	;
 Node-848            	1746.0      	0.0         	                	;
 Node-863            	1749.0      	0.0         	                	;
 Node-336            	1751.0      	0.0         	                	;
 Node-337            	1753.0      	0.0         	                	;
 Node-338            	1758.0      	0.0         	                	;
 Node-339            	1760.0      	0.0         	                	;
 Node-340            	1761.0      	0.0         	                	;
 Node-494            	1763.0      	0.0         	                	;
 Node-343            	1766.0      	0.0         	                	;
 Node-344            	1767.0      	0.0         	                	;
 Node-883            	1766.0      	0.0         	                	;
 Node-911            	1765.0      	0.0         	                	;
 Node-347            	1764.0      	0.0         	                	;
 Node-348            	1764.0      	0.0         	                	;
 Node-906            	1762.0      	0.0         	                	;
 Node-350            	1759.0      	0.0         	                	;
 Node-351            	1756.0      	0.0         	                	;
 Node-352            	1756.0      	0.0         	                	;
 Node-353            	1754.0      	0.0         	                	;
 Node-354            	1750.0      	0.0         	                	;
 Node-356            	1750.0      	0.0         	                	;
 Node-357            	1749.0      	0.0         	                	;
 Node-807            	1748.0      	0.0         	                	;
 Node-359            	1748.0      	0.0         	                	;
 Node-800            	1746.0      	0.0         	                	;
 Node-361            	1746.0      	0.0         	                	;
 Node-799            	1746.0      	0.0         	                	;
 Node-363            	1746.0      	0.0         	                	;
 Node-752            	1746.0      	0.0         	                	;
 Node-748            	1746.0      	0.0         	                	;
 Node-758            	1745.0      	0.0         	                	;
 Node-759            	1745.0      	0.0         	                	;
 Node-368            	1746.0      	0.0         	                	;
 Node-743            	1746.0      	0.0         	                	;
 Node-715            	1747.0      	0.0         	                	;
 Node-713            	1747.0      	0.0         	                	;
 Node-372            	1747.0      	0.0         	                	;
 Node-704            	1748.0      	0.0         	                	;
 Node-718            	1748.0      	0.0         	                	;
 Node-375            	1748.0      	0.0         	                	;
 Node-376            	1749.0      	0.0         	                	;
 Node-377            	1748.0      	0.0         	                	;
 Node-378            	1748.0      	0.0         	                	;
 Node-512            	1749.0      	0.0         	                	;
 Node-381            	1749.0      	0.0         	                	;
 Node-691            	1748.0      	0.0         	                	;
 Node-385            	1748.0      	0.0         	                	;
 Node-386            	1748.0      	0.0         	                	;
 Node-387            	1748.0      	0.0         	                	;
 Node-388            	1748.0      	0.0         	                	;
 Node-389            	1748.0      	0.0         	                	;
 Node-390            	1748.0      	0.0         	                	;
 Node-391            	1749.0      	0.0         	                	;
 Node-392            	1749.0      	0.0         	                	;
 Node-457            	1749.0      	0.0         	                	;
 Node-698            	1748.0      	0.0         	                	;
 Node-395            	1748.0      	0.0         	                	;
 Node-703            	1749.0      	0.0         	                	;
 Node-941            	1748.0      	0.0         	                	;
 Node-398            	1748.0      	0.0         	                	;
 Node-399            	1748.0      	0.0         	                	;
 Node-712            	1747.0      	0.0         	                	;
 Node-401            	1747.0      	0.0         	                	;
 Node-727            	1746.0      	0.0         	                	;
 Node-403            	1746.0      	0.0         	                	;
 Node-736            	1746.0      	0.0         	                	;
 Node-405            	1745.0      	0.0         	                	;
 Node-738            	1745.0      	0.0         	                	;
 Node-407            	1745.0      	0.0         	                	;
 Node-408            	1746.0      	0.0         	                	;
 Node-409            	1746.0      	0.0         	                	;
 Node-410            	1746.0      	0.0         	                	;
 Node-413            	1746.0      	0.0         	                	;
 Node-548            	1746.0      	0.0         	                	;
 Node-414            	1746.0      	0.555555556 	                	;
 Node-416            	1766.0      	0.324074074 	                	;
 Node-417            	1743.0      	0.00462963  	                	;
 Node-684            	1745.0      	0.0         	                	;
 Node-420            	1766.0      	0.0         	                	;
 Node-421            	1766.0      	0.0         	                	;
 Node-422            	1764.0      	0.0         	                	;
 Node-423            	1763.0      	0.0         	                	;
 Node-1098           	1762.0      	0.0         	                	;
 Node-425            	1762.0      	0.0         	                	;
 Node-426            	1761.0      	0.0         	                	;
 Node-427            	1760.0      	0.0         	                	;
 Node-428            	1758.0      	0.0         	                	;
 Node-429            	1758.0      	0.0         	                	;
 Node-430            	1757.0      	0.0         	                	;
 Node-431            	1756.0      	0.0         	                	;
 Node-432            	1756.0      	0.0         	                	;
 Node-920            	1756.0      	0.0         	                	;
 Node-434            	1758.0      	0.0         	                	;
 Node-435            	1758.0      	0.0         	                	;
 Node-918            	1758.0      	0.0         	                	;
 Node-930            	1758.0      	0.0         	                	;
 Node-438            	1758.0      	0.0         	                	;
 Node-439            	1759.0      	0.0         	                	;
 Node-440            	1757.0      	0.0         	                	;
 Node-441            	1755.0      	0.0         	                	;
 Node-442            	1752.0      	0.0         	                	;
 Node-443            	1749.0      	0.0         	                	;
 Node-444            	1748.0      	0.0         	                	;
 Node-445            	1744.0      	0.0         	                	;
 Node-446            	1743.0      	0.0         	                	;
 Node-447            	1739.0      	0.0         	                	;
 Node-448            	1737.0      	0.0         	                	;
 Node-449            	1734.0      	0.0         	                	;
 Node-450            	1730.0      	0.0         	                	;
 Node-451            	1729.0      	0.0         	                	;
 Node-453            	1750.0      	0.00462963  	                	;
 Node-454            	1750.0      	0.0         	                	;
 Node-455            	1750.0      	0.0         	                	;
 Node-456            	1749.0      	0.0         	                	;
 Node-458            	1733.0      	0.405555556 	                	;
 Node-459            	1733.0      	0.0         	                	;
 Node-460            	1733.0      	0.0         	                	;
 Node-461            	1734.0      	0.0         	                	;
 Node-462            	1736.0      	0.0         	                	;
 Node-463            	1736.0      	0.0         	                	;
 Node-464            	1737.0      	0.0         	                	;
 Node-465            	1738.0      	0.0         	                	;
 Node-466            	1739.0      	0.0         	                	;
 Node-871            	1739.0      	0.0         	                	;
 Node-468            	1740.0      	0.0         	                	;
 Node-469            	1740.0      	0.0         	                	;
 Node-470            	1741.0      	0.0         	                	;
 Node-870            	1741.0      	0.0         	                	;
 Node-472            	1742.0      	0.0         	                	;
 Node-473            	1742.0      	0.0         	                	;
 Node-474            	1743.0      	0.0         	                	;
 Node-475            	1745.0      	0.0         	                	;
 Node-476            	1745.0      	0.0         	                	;
 Node-875            	1744.0      	0.0         	                	;
 Node-1097           	1746.0      	0.0         	                	;
 Node-479            	1746.0      	0.0         	                	;
 Node-480            	1748.0      	0.0         	                	;
 Node-481            	1750.0      	0.0         	                	;