[TITLE]
20437 Rwasentama(GrandSeminaireNyakibanda) WSS in Huye District

[JUNCTIONS]
;ID                  	Elev        	Demand      	Pattern         
 Node-246            	1719.0      	0.0         	                	;
 Node-2              	1719.0      	0.0         	                	;
 Node-3              	1718.0      	0.0         	                	;
 Node-12             	1718.0      	0.0         	                	;
 Node-5              	1718.0      	0.0         	                	;
 Node-6              	1718.0      	0.0         	                	;
 Node-7              	1717.0      	0.0         	                	;
 Node-8              	1717.0      	0.0         	                	;
 Node-9              	1717.0      	0.0         	                	;
 Node-298            	1717.0      	0.0         	                	;
 Node-11             	1716.0      	0.0         	                	;
 Node-13             	1718.0      	0.0         	                	;
 Node-291            	1717.0      	0.0         	                	;
 Node-15             	1717.0      	0.0         	                	;
 Node-38             	1717.0      	0.0         	                	;
 Node-17             	1717.0      	0.0         	                	;
 Node-35             	1719.0      	0.0         	                	;
 Node-20             	1719.0      	0.0         	                	;
 Node-21             	1720.0      	0.0         	                	;
 Node-22             	1720.0      	0.0         	                	;
 Node-23             	1720.0      	0.0         	                	;
 Node-24             	1720.0      	0.0         	                	;
 Node-25             	1720.0      	0.0         	                	;
 Node-26             	1720.0      	0.0         	                	;
 Node-47             	1720.0      	0.0         	                	;
 Node-30             	1720.0      	0.0         	                	;
 Node-31             	1720.0      	0.0         	                	;
 Node-32             	1720.0      	0.0         	                	;
 Node-33             	1720.0      	0.0         	                	;
 Node-34             	1720.0      	0.0         	                	;
 Node-36             	1719.0      	0.0         	                	;
 Node-37             	1718.0      	0.0         	                	;
 Node-238            	1722.0      	0.0         	                	;
 Node-41             	1722.0      	0.0         	                	;
 Node-240            	1722.0      	0.0         	                	;
 Node-43             	1723.0      	0.0         	                	;
 Node-44             	1723.0      	0.0         	                	;
 Node-45             	1723.0      	0.0         	                	;
 Node-46             	1723.0      	0.0         	                	;
 Node-48             	1719.0      	0.0         	                	;
 Node-80             	1725.0      	0.0         	                	;
 Node-51             	1724.0      	0.0         	                	;
 Node-318            	1724.0      	0.0         	                	;
 Node-54             	1720.0      	0.0         	                	;
 Node-55             	1720.0      	0.0         	                	;
 Node-56             	1719.0      	0.0         	                	;
 Node-57             	1719.0      	0.0         	                	;
 Node-58             	1719.0      	0.0         	                	;
 Node-59             	1719.0      	0.0         	                	;
 Node-60             	1718.0      	0.0         	                	;
 Node-61             	1718.0      	0.0         	                	;
 Node-314            	1717.0      	0.0         	                	;
 Node-85             	1723.0      	0.0         	                	;
 Node-64             	1722.0      	0.0         	                	;
 Node-65             	1722.0      	0.0         	                	;
 Node-66             	1722.0      	0.0         	                	;
 Node-67             	1722.0      	0.0         	                	;
 Node-232            	1724.0      	0.0         	                	;
 Node-71             	1725.0      	0.0         	                	;
 Node-72             	1724.0      	0.0         	                	;
 Node-73             	1725.0      	0.0         	                	;
 Node-74             	1725.0      	0.0         	                	;
 Node-75             	1725.0      	0.0         	                	;
 Node-76             	1725.0      	0.0         	                	;
 Node-77             	1725.0      	0.0         	                	;
 Node-78             	1725.0      	0.0         	                	;
 Node-79             	1725.0      	0.0         	                	;
 Node-83             	1724.0      	0.0         	                	;
 Node-84             	1723.0      	0.0         	                	;
 Node-86             	1723.0      	0.0         	                	;
 Node-100            	1717.0      	0.0         	                	;
 Node-88             	1717.0      	0.0         	                	;
 Node-89             	1717.0      	0.0         	                	;
 Node-91             	1835.0      	0.0         	                	;
 Node-92             	1835.0      	0.0         	                	;
 Node-376            	1833.0      	0.0         	                	;
 Node-95             	1835.0      	0.0         	                	;
 Node-96             	1835.0      	0.0         	                	;
 Node-97             	1835.0      	0.0         	                	;
 Node-364            	1717.0      	0.0         	                	;
 Node-101            	1717.0      	0.0         	                	;
 Node-103            	1840.0      	0.0         	                	;
 Node-104            	1835.0      	0.0         	                	;
 Node-105            	1835.0      	0.0         	                	;
 Node-108            	1840.0      	0.0         	                	;
 Node-109            	1839.0      	0.0         	                	;
 Node-110            	1835.0      	0.0         	                	;
 Node-226            	1836.0      	0.0         	                	;
 Node-113            	1836.0      	0.0         	                	;
 Node-114            	1827.0      	0.0         	                	;
 Node-115            	1827.0      	0.0         	                	;
 Node-116            	1827.0      	0.0         	                	;
 Node-117            	1828.0      	0.0         	                	;
 Node-118            	1823.0      	0.0         	                	;
 Node-119            	1817.0      	0.0         	                	;
 Node-120            	1816.0      	0.0         	                	;
 Node-121            	1816.0      	0.0         	                	;
 Node-122            	1815.0      	0.0         	                	;
 Node-123            	1814.0      	0.0         	                	;
 Node-124            	1813.0      	0.0         	                	;
 Node-125            	1812.0      	0.0         	                	;
 Node-126            	1809.0      	0.0         	                	;
 Node-127            	1807.0      	0.0         	                	;
 Node-128            	1803.0      	0.0         	                	;
 Node-129            	1803.0      	0.0         	                	;
 Node-130            	1801.0      	0.0         	                	;
 Node-131            	1801.0      	0.0         	                	;
 Node-132            	1798.0      	0.0         	                	;
 Node-133            	1798.0      	0.0         	                	;
 Node-134            	1796.0      	0.0         	                	;
 Node-135            	1795.0      	0.0         	                	;
 Node-136            	1794.0      	0.0         	                	;
 Node-137            	1793.0      	0.0         	                	;
 Node-138            	1791.0      	0.0         	                	;
 Node-139            	1790.0      	0.0         	                	;
 Node-140            	1788.0      	0.0         	                	;
 Node-141            	1788.0      	0.0         	                	;
 Node-142            	1785.0      	0.0         	                	;
 Node-143            	1789.0      	0.0         	                	;
 Node-144            	1787.0      	0.0         	                	;
 Node-145            	1784.0      	0.0         	                	;
 Node-146            	1784.0      	0.0         	                	;
 Node-147            	1781.0      	0.0         	                	;
 Node-148            	1783.0      	0.0         	                	;
 Node-149            	1781.0      	0.0         	                	;
 Node-150            	1779.0      	0.0         	                	;
 Node-151            	1779.0      	0.0         	                	;
 Node-152            	1778.0      	0.0         	                	;
 Node-153            	1775.0      	0.0         	                	;
 Node-154            	1776.0      	0.0         	                	;
 Node-155            	1776.0      	0.0         	                	;
 Node-156            	1773.0      	0.0         	                	;
 Node-157            	1773.0      	0.0         	                	;
 Node-158            	1770.0      	0.0         	                	;
 Node-159            	1771.0      	0.0         	                	;
 Node-160            	1770.0      	0.0         	                	;
 Node-161            	1768.0      	0.0         	                	;
 Node-162            	1768.0      	0.0         	                	;
 Node-163            	1769.0      	0.0         	                	;
 Node-164            	1767.0      	0.0         	                	;
 Node-165            	1766.0      	0.0         	                	;
 Node-166            	1766.0      	0.0         	                	;
 Node-167            	1766.0      	0.0         	                	;
 Node-168            	1766.0      	0.0         	                	;
 Node-169            	1764.0      	0.0         	                	;
 Node-170            	1765.0      	0.0         	                	;
 Node-171            	1763.0      	0.0         	                	;
 Node-172            	1763.0      	0.0         	                	;
 Node-173            	1761.0      	0.0         	                	;
 Node-174            	1761.0      	0.0         	                	;
 Node-175            	1760.0      	0.0         	                	;
 Node-176            	1760.0      	0.0         	                	;
 Node-177            	1759.0      	0.0         	                	;
 Node-178            	1758.0      	0.0         	                	;
 Node-179            	1758.0      	0.0         	                	;
 Node-180            	1757.0      	0.0         	                	;
 Node-181            	1757.0      	0.0         	                	;
 Node-182            	1758.0      	0.0         	                	;
 Node-183            	1757.0      	0.0         	                	;
 Node-184            	1756.0      	0.0         	                	;
 Node-185            	1753.0      	0.0         	                	;
 Node-186            	1754.0      	0.0         	                	;
 Node-187            	1753.0      	0.0         	                	;
 Node-188            	1753.0      	0.0         	                	;
 Node-189            	1752.0      	0.0         	                	;
 Node-190            	1751.0      	0.0         	                	;
 Node-191            	1749.0      	0.0         	                	;
 Node-192            	1749.0      	0.0         	                	;
 Node-193            	1748.0      	0.0         	                	;
 Node-194            	1747.0      	0.0         	                	;
 Node-195            	1747.0      	0.0         	                	;
 Node-196            	1745.0      	0.0         	                	;
 Node-197            	1744.0      	0.0         	                	;
 Node-198            	1744.0      	0.0         	                	;
 Node-199            	1745.0      	0.0         	                	;
 Node-200            	1743.0      	0.0         	                	;
 Node-201            	1744.0      	0.0         	                	;
 Node-289            	1726.0      	0.0         	                	;
 Node-229            	1725.0      	0.0         	                	;
 Node-206            	1833.0      	0.0         	                	;
 Node-207            	1832.0      	0.0         	                	;
 Node-208            	1832.0      	0.0         	                	;
 Node-209            	1832.0      	0.0         	                	;
 Node-210            	1832.0      	0.0         	                	;
 Node-211            	1832.0      	0.0         	                	;
 Node-212            	1835.0      	0.0         	                	;
 Node-213            	1835.0      	0.0         	                	;
 Node-214            	1835.0      	0.0         	                	;
 Node-215            	1836.0      	0.0         	                	;
 Node-218            	1835.0      	0.0         	                	;
 Node-219            	1835.0      	0.0         	                	;
 Node-220            	1834.0      	0.0         	                	;
 Node-221            	1833.0      	0.0         	                	;
 Node-222            	1832.0      	0.0         	                	;
 Node-223            	1835.0      	0.0         	                	;
 Node-224            	1835.0      	0.0         	                	;
 Node-225            	1836.0      	0.0         	                	;
 Node-230            	1725.0      	0.0         	                	;
 Node-231            	1725.0      	0.0         	                	;
 Node-233            	1724.0      	0.0         	                	;
 Node-234            	1723.0      	0.0         	                	;
 Node-235            	1723.0      	0.0         	                	;
 Node-236            	1722.0      	0.0         	                	;
 Node-237            	1722.0      	0.0         	                	;
 Node-239            	1722.0      	0.0         	                	;
 Node-241            	1722.0      	0.0         	                	;
 Node-242            	1721.0      	0.0         	                	;
 Node-243            	1720.0      	0.0         	                	;
 Node-244            	1720.0      	0.0         	                	;
 Node-245            	1720.0      	0.0         	                	;
 Node-280            	1729.0      	0.0         	                	;
 Node-248            	1729.0      	0.0         	                	;
 Node-249            	1729.0      	0.0         	                	;
 Node-250            	1729.0      	0.0         	                	;
 Node-251            	1729.0      	0.0         	                	;
 Node-252            	1729.0      	0.0         	                	;
 Node-253            	1729.0      	0.0         	                	;
 Node-255            	1742.0      	0.0         	                	;
 Node-256            	1742.0      	0.0         	                	;
 Node-257            	1741.0      	0.0         	                	;
 Node-258            	1741.0      	0.0         	                	;
 Node-259            	1740.0      	0.0         	                	;
 Node-260            	1739.0      	0.0         	                	;
 Node-261            	1738.0      	0.0         	                	;
 Node-262            	1737.0      	0.0         	                	;
 Node-263            	1736.0      	0.0         	                	;
 Node-264            	1736.0      	0.0         	                	;
 Node-265            	1735.0      	0.0         	                	;
 Node-266            	1734.0      	0.0         	                	;
 Node-267            	1734.0      	0.0         	                	;
 Node-268            	1733.0      	0.0         	                	;
 Node-269            	1732.0      	0.0         	                	;
 Node-270            	1732.0      	0.0         	                	;
 Node-271            	1732.0      	0.0         	                	;
 Node-272            	1731.0      	0.0         	                	;
 Node-273            	1731.0      	0.0         	                	;
 Node-274            	1731.0      	0.0         	                	;
 Node-275            	1730.0      	0.0         	                	;
 Node-276            	1730.0      	0.0         	                	;
 Node-277            	1729.0      	0.0         	                	;
 Node-278            	1729.0      	0.0         	                	;
 Node-279            	1729.0      	0.0         	                	;
 Node-281            	1728.0      	0.0         	                	;
 Node-282            	1728.0      	0.0         	                	;
 Node-283            	1728.0      	0.0         	                	;
 Node-284            	1728.0      	0.0         	                	;
 Node-285            	1727.0      	0.0         	                	;
 Node-286            	1727.0      	0.0         	                	;
 Node-287            	1726.0      	0.0         	                	;
 Node-288            	1726.0      	0.0         	                	;
 Node-292            	1717.0      	0.0         	                	;
 Node-293            	1717.0      	0.0         	                	;
 Node-294            	1717.0      	0.0         	                	;
 Node-295            	1717.0      	0.0         	                	;
 Node-296            	1717.0      	0.0         	                	;
 Node-297            	1717.0      	0.0         	                	;
 Node-299            	1716.0      	0.0         	                	;
 Node-300            	1716.0      	0.0         	                	;
 Node-301            	1717.0      	0.0         	                	;
 Node-302            	1716.0      	0.0         	                	;
 Node-303            	1716.0      	0.0         	                	;
 Node-304            	1717.0      	0.0         	                	;
 Node-305            	1717.0      	0.0         	                	;
 Node-306            	1717.0      	0.0         	                	;
 Node-307            	1717.0      	0.0         	                	;
 Node-308            	1717.0      	0.0         	                	;
 Node-309            	1717.0      	0.0         	                	;
 Node-310            	1717.0      	0.0         	                	;
 Node-311            	1716.0      	0.0         	                	;
 Node-312            	1716.0      	0.0         	                	;
 Node-313            	1716.0      	0.0         	                	;
 Node-377            	1717.0      	0.0         	                	;
 Node-316            	1717.0      	0.0         	                	;
 Node-317            	1717.0      	0.0         	                	;
 Node-319            	1724.0      	0.0         	                	;
 Node-320            	1724.0      	0.0         	                	;
 Node-321            	1724.0      	0.0         	                	;
 Node-322            	1723.0      	0.0         	                	;
 Node-325            	1742.0      	0.0         	                	;
 Node-326            	1741.0      	0.0         	                	;
 Node-327            	1741.0      	0.0         	                	;
 Node-328            	1741.0      	0.0         	                	;
 Node-329            	1741.0      	0.0         	                	;
 Node-330            	1740.0      	0.0         	                	;
 Node-331            	1740.0      	0.0         	                	;
 Node-332            	1738.0      	0.0         	                	;
 Node-333            	1737.0      	0.0         	                	;
 Node-334            	1736.0      	0.0         	                	;
 Node-335            	1734.0      	0.0         	                	;
 Node-336            	1733.0      	0.0         	                	;
 Node-337            	1732.0      	0.0         	                	;
 Node-338            	1731.0      	0.0         	                	;
 Node-339            	1729.0      	0.0         	                	;
 Node-340            	1728.0      	0.0         	                	;
 Node-341            	1726.0      	0.0         	                	;
 Node-342            	1726.0      	0.0         	                	;
 Node-343            	1725.0      	0.0         	                	;
 Node-344            	1725.0      	0.0         	                	;
 Node-345            	1725.0      	0.0         	                	;
 Node-346            	1724.0      	0.0         	                	;
 Node-347            	1724.0      	0.0         	                	;
 Node-348            	1723.0      	0.0         	                	;
 Node-349            	1722.0      	0.0         	                	;
 Node-350            	1722.0      	0.0         	                	;
 Node-351            	1721.0      	0.0         	                	;
 Node-352            	1721.0      	0.0         	                	;
 Node-353            	1721.0      	0.0         	                	;
 Node-354            	1721.0      	0.0         	                	;
 Node-355            	1721.0      	0.0         	                	;
 Node-358            	1720.0      	0.0         	                	;
 Node-359            	1720.0      	0.0         	                	;
 Node-360            	1719.0      	0.0         	                	;
 Node-361            	1719.0      	0.0         	                	;
 Node-362            	1719.0      	0.0         	                	;
 Node-363            	1718.0      	0.0         	                	;
 Node-365            	1718.0      	0.0         	                	;
 Node-366            	1718.0      	0.0         	                	;
 Node-367            	1718.0      	0.0         	                	;
 Node-372            	1840.0      	0.0         	                	;
 Node-373            	1839.0      	0.0         	                	;
 Node-374            	1839.0      	0.0         	                	;
 Node-375            	1835.0      	0.0         	                	;
 Node-378            	1717.0      	0.0         	                	;
 Node-379            	1717.0      	0.0         	                	;
 Node-380            	1717.0      	0.0         	                	;
 Node-381            	1717.0      	0.0         	                	;
 Node-382            	1717.0      	0.0         	                	;

[RESERVOIRS]
;ID                  	Head        	Pattern         
 Spring-5599         	1844        	                	;
 Spring-5600         	1840        	                	;
 Spring-5602         	1843        	                	;
 Spring-5603         	1835        	                	;
 Spring-5604         	1835        	                	;
 Spring-5601         	1838        	                	;

[TANKS]
;ID                  	Elevation   	InitLevel   	MinLevel    	MaxLevel    	Diameter    	MinVol      	VolCurve
 Tank-19632          	1718        	0.75        	0.15000000000000002     	1.5         	5           	2.0         	                	;
 Tank-19633          	1723        	0.75        	0.15000000000000002     	1.5         	5           	3.0         	                	;
 Tank-19634          	1720        	0.75        	0.15000000000000002     	1.5         	5           	8.0         	                	;
 Tank-19626          	1716        	0.75        	0.15000000000000002     	1.5         	5           	3.0         	                	;
 Tank-19627          	1744        	0.75        	0.15000000000000002     	1.5         	5           	20.0        	                	;
 Tank-19628          	1726        	0.75        	0.15000000000000002     	1.5         	5           	15.0        	                	;
 Tank-19629          	1720        	0.75        	0.15000000000000002     	1.5         	5           	3.0         	                	;
 Tank-19630          	1720        	0.75        	0.15000000000000002     	1.5         	5           	2.0         	                	;
 Tank-19631          	1717        	0.75        	0.15000000000000002     	1.5         	5           	3.0         	                	;
 Tank-19635          	1725        	0.75        	0.15000000000000002     	1.5         	5           	2.0         	                	;
 Tank-19636          	1723        	0.75        	0.15000000000000002     	1.5         	5           	3.0         	                	;
 Tank-19637          	1716        	0.75        	0.15000000000000002     	1.5         	5           	3.0         	                	;

[PIPES]
;ID                  	Node1               	Node2               	Length      	Diameter    	Roughness   	MinorLoss   	Status
 Pipe-125271-0       	Node-246            	Node-2              	14.599      	50          	100         	0           	Open  	;
 Pipe-125271-1       	Node-2              	Node-3              	3.166       	50          	100         	0           	Open  	;
 Pipe-125271-2       	Node-3              	Node-12             	5.171       	50          	100         	0           	Open  	;
 Pipe-125271-3       	Node-12             	Node-5              	1.421       	50          	100         	0           	Open  	;
 Pipe-125271-4       	Node-5              	Node-6              	10.07       	50          	100         	0           	Open  	;
 Pipe-125271-5       	Node-6              	Node-7              	3.974       	50          	100         	0           	Open  	;
 Pipe-125271-6       	Node-7              	Node-8              	3.786       	50          	100         	0           	Open  	;
 Pipe-125271-7       	Node-8              	Node-9              	7.486       	50          	100         	0           	Open  	;
 Pipe-125271-8       	Node-9              	Node-298            	6.115       	50          	100         	0           	Open  	;
 Pipe-125271-9       	Node-298            	Node-11             	2.404       	50          	100         	0           	Open  	;
 Pipe-125272-0       	Node-12             	Node-13             	5.655       	40          	100         	0           	Open  	;
 Pipe-125272-1       	Node-13             	Node-291            	10.888      	40          	100         	0           	Open  	;
 Pipe-125272-2       	Node-291            	Node-15             	1.995       	40          	100         	0           	Open  	;
 Pipe-125278-0       	Node-38             	Node-17             	7.689       	25          	100         	0           	Open  	;
 Pipe-125278-1       	Node-17             	Tank-19632          	7.116       	25          	100         	0           	Open  	;
 Pipe-125279-0       	Node-35             	Node-20             	12.92       	32          	100         	0           	Open  	;
 Pipe-125279-1       	Node-20             	Node-21             	20.717      	32          	100         	0           	Open  	;
 Pipe-125279-2       	Node-21             	Node-22             	15.279      	32          	100         	0           	Open  	;
 Pipe-125279-3       	Node-22             	Node-23             	13.027      	32          	100         	0           	Open  	;
 Pipe-125279-4       	Node-23             	Node-24             	8.514       	32          	100         	0           	Open  	;
 Pipe-125279-5       	Node-24             	Node-25             	5.802       	32          	100         	0           	Open  	;
 Pipe-125279-6       	Node-25             	Node-26             	13.888      	32          	100         	0           	Open  	;
 Pipe-125279-7       	Node-26             	Node-47             	5.762       	32          	100         	0           	Open  	;
 Pipe-125279-8       	Node-47             	Tank-19629          	3.485       	32          	100         	0           	Open  	;
 Pipe-125273-0       	Node-246            	Node-30             	11.265      	32          	100         	0           	Open  	;
 Pipe-125273-1       	Node-30             	Node-31             	7.825       	32          	100         	0           	Open  	;
 Pipe-125273-2       	Node-31             	Node-32             	7.5         	32          	100         	0           	Open  	;
 Pipe-125273-3       	Node-32             	Node-33             	14.253      	32          	100         	0           	Open  	;
 Pipe-125273-4       	Node-33             	Node-34             	6.125       	32          	100         	0           	Open  	;
 Pipe-125273-5       	Node-34             	Node-35             	13.249      	32          	100         	0           	Open  	;
 Pipe-125273-6       	Node-35             	Node-36             	1.509       	32          	100         	0           	Open  	;
 Pipe-125273-7       	Node-36             	Node-37             	20.815      	32          	100         	0           	Open  	;
 Pipe-125273-8       	Node-37             	Node-38             	4.629       	32          	100         	0           	Open  	;
 Pipe-125273-9       	Node-38             	Tank-19631          	5.081       	32          	100         	0           	Open  	;
 Pipe-125274-0       	Node-238            	Node-41             	0.945       	25          	100         	0           	Open  	;
 Pipe-125275-0       	Node-240            	Node-43             	6.834       	32          	100         	0           	Open  	;
 Pipe-125275-1       	Node-43             	Node-44             	16.97       	32          	100         	0           	Open  	;
 Pipe-125275-2       	Node-44             	Node-45             	3.34        	32          	100         	0           	Open  	;
 Pipe-125275-3       	Node-45             	Node-46             	8.41        	32          	100         	0           	Open  	;
 Pipe-125276-0       	Node-47             	Node-48             	10.429      	32          	100         	0           	Open  	;
 Pipe-125276-1       	Node-48             	Tank-19630          	6.613       	32          	100         	0           	Open  	;
 Pipe-125277-0       	Node-80             	Node-51             	19.657      	32          	100         	0           	Open  	;
 Pipe-125277-1       	Node-51             	Node-318            	4.567       	32          	100         	0           	Open  	;
 Pipe-125292-0       	Tank-19634          	Node-54             	7.387       	40          	100         	0           	Open  	;
 Pipe-125292-1       	Node-54             	Node-55             	0.772       	40          	100         	0           	Open  	;