[TITLE]
20438 AEPNyumba(GrandSeminaireNyumba) WSS in Huye District

[JUNCTIONS]
;ID                  	Elev        	Demand      	Pattern         
 Node-175            	1699.0      	0.0         	                	;
 Node-2              	1698.0      	0.0         	                	;
 Node-3              	1698.0      	0.0         	                	;
 Node-4              	1698.0      	0.0         	                	;
 Node-5              	1698.0      	0.0         	                	;
 Node-7              	1716.0      	0.0         	                	;
 Node-8              	1714.0      	0.0         	                	;
 Node-9              	1712.0      	0.0         	                	;
 Node-10             	1711.0      	0.0         	                	;
 Node-11             	1710.0      	0.0         	                	;
 Node-12             	1709.0      	0.0         	                	;
 Node-13             	1709.0      	0.0         	                	;
 Node-14             	1708.0      	0.0         	                	;
 Node-15             	1707.0      	0.0         	                	;
 Node-16             	1707.0      	0.0         	                	;
 Node-17             	1704.0      	0.0         	                	;
 Node-18             	1703.0      	0.0         	                	;
 Node-19             	1702.0      	0.0         	                	;
 Node-20             	1702.0      	0.0         	                	;
 Node-21             	1701.0      	0.0         	                	;
 Node-22             	1702.0      	0.0         	                	;
 Node-182            	1701.0      	0.0         	                	;
 Node-24             	1701.0      	0.0         	                	;
 Node-25             	1700.0      	0.0         	                	;
 Node-26             	1701.0      	0.0         	                	;
 Node-27             	1699.0      	0.0         	                	;
 Node-28             	1699.0      	0.0         	                	;
 Node-189            	1699.0      	0.0         	                	;
 Node-52             	1694.0      	0.0         	                	;
 Node-31             	1694.0      	0.0         	                	;
 Node-32             	1693.0      	0.0         	                	;
 Node-33             	1693.0      	0.0         	                	;
 Node-34             	1693.0      	0.0         	                	;
 Node-35             	1692.0      	0.0         	                	;
 Node-36             	1690.0      	0.0         	                	;
 Node-37             	1690.0      	0.0         	                	;
 Node-38             	1690.0      	0.0         	                	;
 Node-39             	1688.0      	0.0         	                	;
 Node-40             	1688.0      	0.0         	                	;
 Node-68             	1688.0      	0.0         	                	;
 Node-43             	1688.0      	0.518518519 	                	;
 Node-198            	1696.0      	0.0         	                	;
 Node-45             	1696.0      	0.0         	                	;
 Node-46             	1696.0      	0.0         	                	;
 Node-47             	1695.0      	0.0         	                	;
 Node-48             	1694.0      	0.0         	                	;
 Node-49             	1694.0      	0.0         	                	;
 Node-50             	1694.0      	0.0         	                	;
 Node-53             	1694.0      	0.0         	                	;
 Node-54             	1694.0      	0.0         	                	;
 Node-55             	1694.0      	0.0         	                	;
 Node-56             	1693.0      	0.0         	                	;
 Node-57             	1693.0      	0.0         	                	;
 Node-58             	1693.0      	0.0         	                	;
 Node-84             	1685.0      	0.0         	                	;
 Node-60             	1685.0      	0.0         	                	;
 Node-61             	1685.0      	0.0         	                	;
 Node-62             	1685.0      	0.0         	                	;
 Node-64             	1697.0      	0.0         	                	;
 Node-65             	1698.0      	0.0         	                	;
 Node-66             	1697.0      	0.0         	                	;
 Node-67             	1698.0      	0.0         	                	;
 Node-69             	1688.0      	0.0         	                	;
 Node-72             	1687.0      	0.0         	                	;
 Node-71             	1687.0      	0.0         	                	;
 Node-73             	1688.0      	0.0         	                	;
 Node-74             	1687.0      	0.0         	                	;
 Node-75             	1687.0      	0.0         	                	;
 Node-76             	1686.0      	0.0         	                	;
 Node-77             	1687.0      	0.0         	                	;
 Node-78             	1687.0      	0.0         	                	;
 Node-79             	1687.0      	0.0         	                	;
 Node-80             	1688.0      	0.0         	                	;
 Node-81             	1687.0      	0.0         	                	;
 Node-82             	1686.0      	0.0         	                	;
 Node-83             	1686.0      	0.0         	                	;
 Node-85             	1685.0      	0.0         	                	;
 Node-144            	1706.0      	0.0         	                	;
 Node-88             	1708.0      	0.0         	                	;
 Node-89             	1708.0      	0.0         	                	;
 Node-200            	1723.0      	0.0         	                	;
 Node-91             	1723.0      	0.0         	                	;
 Node-92             	1722.0      	0.0         	                	;
 Node-93             	1722.0      	0.0         	                	;
 Node-94             	1721.0      	0.0         	                	;
 Node-95             	1721.0      	0.0         	                	;
 Node-96             	1719.0      	0.0         	                	;
 Node-97             	1719.0      	0.0         	                	;
 Node-98             	1718.0      	0.0         	                	;
 Node-99             	1719.0      	0.0         	                	;
 Node-100            	1719.0      	0.0         	                	;
 Node-101            	1719.0      	0.0         	                	;
 Node-102            	1718.0      	0.0         	                	;
 Node-103            	1717.0      	0.0         	                	;
 Node-104            	1716.0      	0.0         	                	;
 Node-105            	1716.0      	0.0         	                	;
 Node-106            	1716.0      	0.0         	                	;
 Node-107            	1715.0      	0.0         	                	;
 Node-108            	1716.0      	0.0         	                	;
 Node-109            	1715.0      	0.0         	                	;
 Node-110            	1716.0      	0.0         	                	;
 Node-111            	1714.0      	0.0         	                	;
 Node-112            	1717.0      	0.0         	                	;
 Node-113            	1717.0      	0.0         	                	;
 Node-114            	1718.0      	0.0         	                	;
 Node-115            	1718.0      	0.0         	                	;
 Node-116            	1718.0      	0.0         	                	;
 Node-117            	1719.0      	0.0         	                	;
 Node-118            	1717.0      	0.0         	                	;
 Node-119            	1718.0      	0.0         	                	;
 Node-120            	1718.0      	0.0         	                	;
 Node-121            	1717.0      	0.0         	                	;
 Node-122            	1718.0      	0.0         	                	;
 Node-123            	1719.0      	0.0         	                	;
 Node-124            	1717.0      	0.0         	                	;
 Node-125            	1718.0      	0.0         	                	;
 Node-126            	1718.0      	0.0         	                	;
 Node-127            	1716.0      	0.0         	                	;
 Node-128            	1716.0      	0.0         	                	;
 Node-129            	1716.0      	0.0         	                	;
 Node-130            	1715.0      	0.0         	                	;
 Node-131            	1716.0      	0.0         	                	;
 Node-132            	1716.0      	0.0         	                	;
 Node-135            	1716.0      	0.0         	                	;
 Node-136            	1714.0      	0.0         	                	;
 Node-137            	1712.0      	0.0         	                	;
 Node-138            	1711.0      	0.0         	                	;
 Node-139            	1710.0      	0.0         	                	;
 Node-140            	1708.0      	0.0         	                	;
 Node-141            	1708.0      	0.0         	                	;
 Node-142            	1707.0      	0.0         	                	;
 Node-143            	1707.0      	0.0         	                	;
 Node-145            	1706.0      	0.0         	                	;
 Node-146            	1707.0      	0.0         	                	;
 Node-147            	1706.0      	0.0         	                	;
 Node-201            	1705.0      	0.0         	                	;
 Node-169            	1704.0      	0.0         	                	;
 Node-150            	1705.0      	0.0         	                	;
 Node-155            	1705.0      	0.0         	                	;
 Node-152            	1703.0      	0.0         	                	;
 Node-153            	1703.0      	0.0         	                	;
 Node-154            	1704.0      	0.0         	                	;
 Node-156            	1705.0      	0.0         	                	;
 Node-168            	1708.0      	0.0         	                	;
 Node-159            	1708.0      	0.0         	                	;
 Node-160            	1705.0      	0.0         	                	;
 Node-161            	1704.0      	0.0         	                	;
 Node-162            	1704.0      	0.0         	                	;
 Node-163            	1704.0      	0.0         	                	;
 Node-164            	1703.0      	0.0         	                	;
 Node-165            	1702.0      	0.0         	                	;
 Node-177            	1701.0      	0.0         	                	;
 Node-167            	1701.0      	0.0         	                	;
 Node-170            	1704.0      	0.0         	                	;
 Node-172            	1699.0      	0.0         	                	;
 Node-173            	1700.0      	0.0         	                	;
 Node-176            	1700.0      	0.0         	                	;
 Node-178            	1701.0      	0.0         	                	;
 Node-179            	1702.0      	0.0         	                	;
 Node-180            	1702.0      	0.0         	                	;
 Node-181            	1702.0      	0.0         	                	;
 Node-183            	1700.0      	0.0         	                	;
 Node-186            	1699.0      	0.0         	                	;
 Node-187            	1699.0      	0.0         	                	;
 Node-188            	1700.0      	0.0         	                	;
 Node-190            	1699.0      	0.0         	                	;
 Node-191            	1699.0      	0.0         	                	;
 Node-192            	1699.0      	0.0         	                	;
 Node-193            	1698.0      	0.0         	                	;
 Node-194            	1698.0      	0.0         	                	;
 Node-195            	1698.0      	0.0         	                	;
 Node-196            	1698.0      	0.0         	                	;
 Node-197            	1697.0      	0.0         	                	;
 Node-199            	1724.0      	0.0         	                	;
 Node-202            	1707.0      	0.0         	                	;
 Node-203            	1707.0      	0.0         	                	;
 Node-204            	1707.0      	0.0         	                	;
 Node-205            	1707.0      	0.0         	                	;

[RESERVOIRS]
;ID                  	Head        	Pattern         
 Spring-5605         	1726        	                	;

[TANKS]
;ID                  	Elevation   	InitLevel   	MinLevel    	MaxLevel    	Diameter    	MinVol      	VolCurve
 Tank-19638          	1717        	0.75        	0.15000000000000002     	1.5         	5           	10.0        	                	;
 Tank-19639          	1699        	0.75        	0.15000000000000002     	1.5         	5           	10.0        	                	;

[PIPES]
;ID                  	Node1               	Node2               	Length      	Diameter    	Roughness   	MinorLoss   	Status
 Pipe-125308-0       	Node-175            	Node-2              	47.976      	32          	100         	0           	Open  	;
 Pipe-125308-1       	Node-2              	Node-3              	13.427      	32          	100         	0           	Open  	;
 Pipe-125308-2       	Node-3              	Node-4              	1.549       	32          	100         	0           	Open  	;
 Pipe-125308-3       	Node-4              	Node-5              	2.986       	32          	100         	0           	Open  	;
 Pipe-125309-0       	Tank-19638          	Node-7              	12.943      	63          	100         	0           	Open  	;
 Pipe-125309-1       	Node-7              	Node-8              	11.394      	63          	100         	0           	Open  	;
 Pipe-125309-2       	Node-8              	Node-9              	18.186      	63          	100         	0           	Open  	;
 Pipe-125309-3       	Node-9              	Node-10             	19.489      	63          	100         	0           	Open  	;
 Pipe-125309-4       	Node-10             	Node-11             	15.905      	63          	100         	0           	Open  	;
 Pipe-125309-5       	Node-11             	Node-12             	8.218       	63          	100         	0           	Open  	;
 Pipe-125309-6       	Node-12             	Node-13             	7.668       	63          	100         	0           	Open  	;
 Pipe-125309-7       	Node-13             	Node-14             	17.524      	63          	100         	0           	Open  	;
 Pipe-125309-8       	Node-14             	Node-15             	15.949      	63          	100         	0           	Open  	;
 Pipe-125309-9       	Node-15             	Node-16             	17.674      	63          	100         	0           	Open  	;
 Pipe-125309-10      	Node-16             	Node-17             	25.046      	63          	100         	0           	Open  	;
 Pipe-125309-11      	Node-17             	Node-18             	24.939      	63          	100         	0           	Open  	;
 Pipe-125309-12      	Node-18             	Node-19             	22.008      	63          	100         	0           	Open  	;
 Pipe-125309-13      	Node-19             	Node-20             	10.201      	63          	100         	0           	Open  	;
 Pipe-125309-14      	Node-20             	Node-21             	8.608       	63          	100         	0           	Open  	;
 Pipe-125309-15      	Node-21             	Node-22             	8.295       	63          	100         	0           	Open  	;
 Pipe-125309-16      	Node-22             	Node-182            	9.897       	63          	100         	0           	Open  	;
 Pipe-125309-17      	Node-182            	Node-24             	4.344       	63          	100         	0           	Open  	;
 Pipe-125309-18      	Node-24             	Node-25             	7.291       	63          	100         	0           	Open  	;
 Pipe-125309-19      	Node-25             	Node-26             	4.562       	63          	100         	0           	Open  	;
 Pipe-125309-20      	Node-26             	Node-27             	6.357       	63          	100         	0           	Open  	;
 Pipe-125309-21      	Node-27             	Node-28             	13.111      	63          	100         	0           	Open  	;
 Pipe-125309-22      	Node-28             	Node-189            	10.608      	63          	100         	0           	Open  	;
 Pipe-125310-0       	Node-52             	Node-31             	21.668      	32          	100         	0           	Open  	;
 Pipe-125310-1       	Node-31             	Node-32             	7.018       	32          	100         	0           	Open  	;
 Pipe-125310-2       	Node-32             	Node-33             	22.188      	32          	100         	0           	Open  	;
 Pipe-125310-3       	Node-33             	Node-34             	13.941      	32          	100         	0           	Open  	;
 Pipe-125310-4       	Node-34             	Node-35             	9.103       	32          	100         	0           	Open  	;
 Pipe-125310-5       	Node-35             	Node-36             	13.712      	32          	100         	0           	Open  	;
 Pipe-125310-6       	Node-36             	Node-37             	4.993       	32          	100         	0           	Open  	;
 Pipe-125310-7       	Node-37             	Node-38             	8.8         	32          	100         	0           	Open  	;
 Pipe-125310-8       	Node-38             	Node-39             	12.751      	32          	100         	0           	Open  	;
 Pipe-125310-9       	Node-39             	Node-40             	22.19       	32          	100         	0           	Open  	;
 Pipe-125310-10      	Node-40             	Node-68             	5.496       	32          	100         	0           	Open  	;
 Pipe-125311-0       	Node-68             	Node-43             	2.998       	25          	100         	0           	Open  	;
 Pipe-125312-0       	Node-198            	Node-45             	9.382       	50          	100         	0           	Open  	;
 Pipe-125312-1       	Node-45             	Node-46             	3.616       	50          	100         	0           	Open  	;
 Pipe-125312-2       	Node-46             	Node-47             	12.815      	50          	100         	0           	Open  	;
 Pipe-125312-3       	Node-47             	Node-48             	16.569      	50          	100         	0           	Open  	;
 Pipe-125312-4       	Node-48             	Node-49             	4.428       	50          	100         	0           	Open  	;
 Pipe-125312-5       	Node-49             	Node-50             	21.48       	50          	100         	0           	Open  	;
 Pipe-125312-6       	Node-50             	Node-52             	6.147       	50          	100         	0           	Open  	;
 Pipe-125313-0       	Node-52             	Node-53             	12.297      	32          	100         	0           	Open  	;
 Pipe-125313-1       	Node-53             	Node-54             	12.461      	32          	100         	0           	Open  	;
 Pipe-125313-2       	Node-54             	Node-55             	17.353      	32          	100         	0           	Open  	;
 Pipe-125313-3       	Node-55             	Node-56             	11.07       	32          	100         	0           	Open  	;
 Pipe-125313-4       	Node-56             	Node-57             	5.207       	32          	100         	0           	Open  	;
 Pipe-125313-5       	Node-57             	Node-58             	1.923       	32          	100         	0           	Open  	;
 Pipe-125314-0       	Node-84             	Node-60             	8.511       	20          	100         	0           	Open  	;
 Pipe-125314-1       	Node-60             	Node-61             	1.727       	20          	100         	0           	Open  	;
 Pipe-125314-2       	Node-61             	Node-62             	2.361       	20          	100         	0           	Open  	;
 Pipe-125315-0       	Node-198            	Node-64             	5.704       	32          	100         	0           	Open  	;
 Pipe-125315-1       	Node-64             	Node-65             	13.687      	32          	100         	0           	Open  	;
 Pipe-125315-2       	Node-65             	Node-66             	8.894       	32          	100         	0           	Open  	;
 Pipe-125315-3       	Node-66             	Node-67             	9.927       	32          	100         	0           	Open  	;
 Pipe-125316-0       	Node-68             	Node-69             	4.173       	32          	100         	0           	Open  	;
 Pipe-125316-1       	Node-69             	Node-72             	10.095      	32          	100         	0           	Open  	;
 Pipe-125316-2       	Node-72             	Node-71             	2.27        	32          	100         	0           	Open  	;
 Pipe-125317-0       	Node-72             	Node-73             	5.615       	20          	100         	0           	Open  	;
 Pipe-125317-1       	Node-73             	Node-74             	6.489       	20          	100         	0           	Open  	;
 Pipe-125317-2       	Node-74             	Node-75             	8.005       	20          	100         	0           	Open  	;
 Pipe-125317-3       	Node-75             	Node-76             	14.589      	20          	100         	0           	Open  	;
 Pipe-125317-4       	Node-76             	Node-77             	7.944       	20          	100         	0           	Open  	;
 Pipe-125317-5       	Node-77             	Node-78             	13.347      	20          	100         	0           	Open  	;
 Pipe-125317-6       	Node-78             	Node-79             	9.434       	20          	100         	0           	Open  	;
 Pipe-125317-7       	Node-79             	Node-80             	9.868       	20          	100         	0           	Open  	;
 Pipe-125317-8       	Node-80             	Node-81             	7.62        	20          	100         	0           	Open  	;
 Pipe-125317-9       	Node-81             	Node-82             	3.007       	20          	100         	0           	Open  	;
 Pipe-125317-10      	Node-82             	Node-83             	8.532       	20          	100         	0           	Open  	;
 Pipe-125317-11      	Node-83             	Node-84             	7.684       	20          	100         	0           	Open  	;
 Pipe-125317-12      	Node-84             	Node-85             	1.08        	20          	100         	0           	Open  	;
 Pipe-125318-0       	Spring-5605         	Node-199            	11.654      	63          	100         	0           	Open  	;
 Pipe-125318-1       	Node-199            	Node-200            	8.028       	63          	100         	0           	Open  	;
 Pipe-125319-0       	Node-201            	Node-202            	2.713       	32          	100         	0           	Open  	;
 Pipe-125319-1       	Node-202            	Node-203            	8.347       	32          	100         	0           	Open  	;
 Pipe-125319-2       	Node-203            	Node-204            	7.932       	32          	100         	0           	Open  	;
 Pipe-125319-3       	Node-204            	Node-205            	2.78        	32          	100         	0           	Open  	;
 Pipe-125320-0       	Node-144            	Node-88             	6.942       	25          	100         	0           	Open  	;
 Pipe-125320-1       	Node-88             	Node-89             	2.357       	25          	100         	0           	Open  	;
 Pipe-125321-0       	Node-200            	Node-91             	9.462       	63          	100         	0           	Open  	;
 Pipe-125321-1       	Node-91             	Node-92             	7.883       	63          	100         	0           	Open  	;
 Pipe-125321-2       	Node-92             	Node-93             	7.577       	63          	100         	0           	Open  	;
 Pipe-125321-3       	Node-93             	Node-94             	10.055      	63          	100         	0           	Open  	;
 Pipe-125321-4       	Node-94             	Node-95             	11.504      	63          	100         	0           	Open  	;
 Pipe-125321-5       	Node-95             	Node-96             	22.732      	63          	100         	0           	Open  	;
 Pipe-125321-6       	Node-96             	Node-97             	5.631       	63          	100         	0           	Open  	;
 Pipe-125321-7       	Node-97             	Node-98             	3.569       	63          	100         	0           	Open  	;
 Pipe-125321-8       	Node-98             	Node-99             	3.841       	63          	100         	0           	Open  	;
 Pipe-125321-9       	Node-99             	Node-100            	10.083      	63          	100         	0           	Open  	;
 Pipe-125321-10      	Node-100            	Node-101            	11.202      	63          	100         	0           	Open  	;
 Pipe-125321-11      	Node-101            	Node-102            	5.185       	63          	100         	0           	Open  	;
 Pipe-125321-12      	Node-102            	Node-103            	13.023      	63          	100         	0           	Open  	;
 Pipe-125321-13      	Node-103            	Node-104            	23.059      	63          	100         	0           	Open  	;
 Pipe-125321-14      	Node-104            	Node-105            	12.95       	63          	100         	0           	Open  	;
 Pipe-125321-15      	Node-105            	Node-106            	12.591      	63          	100         	0           	Open  	;
 Pipe-125321-16      	Node-106            	Node-107            	16.533      	63          	100         	0           	Open  	;
 Pipe-125321-17      	Node-107            	Node-108            	13.829      	63          	100         	0           	Open  	;
 Pipe-125321-18      	Node-108            	Node-109            	10.349      	63          	100         	0           	Open  	;
 Pipe-125321-19      	Node-109            	Node-110            	8.638       	63          	100         	0           	Open  	;
 Pipe-125321-20      	Node-110            	Node-111            	11.586      	63          	100         	0           	Open  	;
 Pipe-125321-21      	Node-111            	Node-112            	6.913       	63          	100         	0           	Open  	;
 Pipe-125321-22      	Node-112            	Node-113            	2.674       	63          	100         	0           	Open  	;
 Pipe-125321-23      	Node-113            	Node-114            	7.232       	63          	100         	0           	Open  	;
 Pipe-125321-24      	Node-114            	Node-115            	14.134      	63          	100         	0           	Open  	;
 Pipe-125321-25      	Node-115            	Node-116            	7.353       	63          	100         	0           	Open  	;
 Pipe-125321-26      	Node-116            	Node-117            	8.863       	63          	100         	0           	Open  	;
 Pipe-125321-27      	Node-117            	Node-118            	14.614      	63          	100         	0           	Open  	;
 Pipe-125321-28      	Node-118            	Node-119            	10.842      	63          	100         	0           	Open  	;
 Pipe-125321-29      	Node-119            	Node-120            	8.924       	63          	100         	0           	Open  	;
 Pipe-125321-30      	Node-120            	Node-121            	19.444      	63          	100         	0           	Open  	;
 Pipe-125321-31      	Node-121            	Node-122            	10.041      	63          	100         	0           	Open  	;
 Pipe-125321-32      	Node-122            	Node-123            	7.079       	63          	100         	0           	Open  	;
 Pipe-125321-33      	Node-123            	Node-124            	7.559       	63          	100         	0           	Open  	;
 Pipe-125321-34      	Node-124            	Node-125            	6.403       	63          	100         	0           	Open  	;
 Pipe-125321-35      	Node-125            	Node-126            	2.876       	63          	100         	0           	Open  	;
 Pipe-125321-36      	Node-126            	Node-127            	27.381      	63          	100         	0           	Open  	;
 Pipe-125321-37      	Node-127            	Node-128            	13.369      	63          	100         	0           	Open  	;
 Pipe-125321-38      	Node-128            	Node-129            	9.025       	63          	100         	0           	Open  	;
 Pipe-125321-39      	Node-129            	Node-130            	13.534      	63          	100         	0           	Open  	;
 Pipe-125321-40      	Node-130            	Node-131            	14.446      	63          	100         	0           	Open  	;
 Pipe-125321-41      	Node-131            	Node-132            	8.063       	63          	100         	0           	Open  	;
 Pipe-125321-42      	Node-132            	Tank-19638          	5.572       	63          	100         	0           	Open  	;
 Pipe-125322-0       	Tank-19638          	Node-135            	12.04       	63          	100         	0           	Open  	;
 Pipe-125322-1       	Node-135            	Node-136            	10.925      	63          	100         	0           	Open  	;
 Pipe-125322-2       	Node-136            	Node-137            	18.23       	63          	100         	0           	Open  	;
 Pipe-125322-3       	Node-137            	Node-138            	19.756      	63          	100         	0           	Open  	;
 Pipe-125322-4       	Node-138            	Node-139            	15.486      	63          	100         	0           	Open  	;
 Pipe-125322-5       	Node-139            	Node-140            	18.205      	63          	100         	0           	Open  	;
 Pipe-125322-6       	Node-140            	Node-141            	6.875       	63          	100         	0           	Open  	;
 Pipe-125322-7       	Node-141            	Node-142            	3.671       	63          	100         	0           	Open  	;
 Pipe-125322-8       	Node-142            	Node-143            	11.092      	63          	100         	0           	Open  	;
 Pipe-125322-9       	Node-143            	Node-144            	13.62       	63          	100         	0           	Open  	;
 Pipe-125322-10      	Node-144            	Node-145            	2.098       	63          	100         	0           	Open  	;
 Pipe-125322-11      	Node-145            	Node-146            	10.395      	63          	100         	0           	Open  	;