[TITLE]
2043 IbisibyaHuye WSS in Huye District

[JUNCTIONS]
;ID                  	Elev        	Demand      	Pattern         
 Node-755            	1746.0      	0.0         	                	;
 Node-14             	1745.0      	0.0         	                	;
 Node-15             	1742.0      	0.0         	                	;
 Node-16             	1724.0      	0.0         	                	;
 Node-17             	1729.0      	0.0         	                	;
 Node-18             	1746.0      	0.0         	                	;
 Node-19             	1723.0      	0.0         	                	;
 Node-20             	1704.0      	0.0         	                	;
 Node-21             	1689.0      	0.0         	                	;
 Node-22             	1684.0      	0.0         	                	;
 Node-23             	1673.0      	0.0         	                	;
 Node-756            	1670.0      	0.0         	                	;
 Node-2251           	1798.0      	0.0         	                	;
 Node-29             	1796.0      	0.0         	                	;
 Node-30             	1796.0      	0.006481481 	                	;
 Node-1035           	1657.0      	0.0         	                	;
 Node-32             	1656.0      	0.006481481 	                	;
 Node-2493           	1725.0      	0.0         	                	;
 Node-34             	1726.0      	0.231481481 	                	;
 Node-1187           	1653.0      	0.0         	                	;
 Node-36             	1653.0      	0.0         	                	;
 Node-37             	1654.0      	0.0         	                	;
 Node-1032           	1654.0      	0.0         	                	;
 Node-39             	1654.0      	0.0         	                	;
 Node-1034           	1656.0      	0.0         	                	;
 Node-41             	1655.0      	0.111111111 	                	;
 Node-42             	1649.0      	0.006481481 	                	;
 Node-43             	1648.0      	0.0         	                	;
 Node-44             	1646.0      	0.0         	                	;
 Node-45             	1646.0      	0.0         	                	;
 Node-1073           	1646.0      	0.0         	                	;
 Node-2915           	1924.0      	0.0         	                	;
 Node-48             	1924.0      	0.0         	                	;
 Node-49             	1922.0      	0.0         	                	;
 Node-50             	1922.0      	0.0         	                	;
 Node-51             	1922.0      	0.0         	                	;
 Node-52             	1922.0      	0.0         	                	;
 Node-53             	1922.0      	0.0         	                	;
 Node-54             	1924.0      	0.0         	                	;
 Node-55             	1919.0      	0.0         	                	;
 Node-56             	1919.0      	0.0         	                	;
 Node-57             	1917.0      	0.0         	                	;
 Node-58             	1915.0      	0.0         	                	;
 Node-59             	1915.0      	0.0         	                	;
 Node-60             	1914.0      	0.0         	                	;
 Node-61             	1917.0      	0.0         	                	;
 Node-62             	1920.0      	0.0         	                	;
 Node-63             	1913.0      	0.0         	                	;
 Node-64             	1913.0      	0.0         	                	;
 Node-65             	1912.0      	0.0         	                	;
 Node-66             	1913.0      	0.0         	                	;
 Node-67             	1914.0      	0.0         	                	;
 Node-68             	1914.0      	0.0         	                	;
 Node-69             	1913.0      	0.0         	                	;
 Node-70             	1912.0      	0.0         	                	;
 Node-71             	1915.0      	0.0         	                	;
 Node-72             	1916.0      	0.0         	                	;
 Node-73             	1914.0      	0.0         	                	;
 Node-74             	1921.0      	0.0         	                	;
 Node-75             	1925.0      	0.0         	                	;
 Node-76             	1926.0      	0.0         	                	;
 Node-77             	1931.0      	0.0         	                	;
 Node-78             	1936.0      	0.0         	                	;
 Node-79             	1938.0      	0.0         	                	;
 Node-80             	1941.0      	0.0         	                	;
 Node-81             	1937.0      	0.0         	                	;
 Node-82             	1948.0      	0.0         	                	;
 Node-1506           	1677.0      	0.0         	                	;
 Node-84             	1677.0      	0.005555556 	                	;
 Node-332            	1743.0      	0.0         	                	;
 Node-86             	1742.0      	0.013888889 	                	;
 Node-557            	1684.0      	0.0         	                	;
 Node-88             	1684.0      	0.003703704 	                	;
 Node-2390           	1783.0      	0.0         	                	;
 Node-90             	1783.0      	0.046296296 	                	;
 Node-1389           	1634.0      	0.0         	                	;
 Node-92             	1631.0      	0.005555556 	                	;
 Node-93             	1801.0      	0.00462963  	                	;
 Node-2362           	1800.0      	0.0         	                	;
 Node-2213           	1800.0      	0.0         	                	;
 Node-96             	1799.0      	0.005555556 	                	;
 Node-1497           	1659.0      	0.0         	                	;
 Node-98             	1659.0      	0.0         	                	;
 Node-99             	1659.0      	0.007407407 	                	;
 Node-100            	1652.0      	0.005555556 	                	;
 Node-101            	1655.0      	0.0         	                	;
 Node-102            	1657.0      	0.0         	                	;
 Node-103            	1658.0      	0.0         	                	;
 Node-1495           	1659.0      	0.0         	                	;
 Node-1759           	1756.0      	0.0         	                	;
 Node-106            	1756.0      	0.0         	                	;
 Node-1628           	1688.0      	0.0         	                	;
 Node-109            	1686.0      	0.0         	                	;
 Node-110            	1686.0      	0.007407407 	                	;
 Node-578            	1715.0      	0.0         	                	;
 Node-112            	1708.0      	0.005555556 	                	;
 Node-1002           	1947.0      	0.0         	                	;
 Node-1003           	1922.0      	0.0         	                	;
 Node-855            	1734.0      	0.0         	                	;
 Node-116            	1733.0      	0.0         	                	;
 Node-117            	1732.0      	0.006481481 	                	;
 Node-119            	1696.0      	0.0         	                	;
 Node-1420           	1695.0      	0.0         	                	;
 Node-121            	1694.0      	0.0         	                	;
 Node-122            	1694.0      	0.0         	                	;
 Node-123            	1692.0      	0.0         	                	;
 Node-124            	1690.0      	0.0         	                	;
 Node-125            	1690.0      	0.231481481 	                	;
 Node-1501           	1663.0      	0.0         	                	;
 Node-127            	1662.0      	0.00462963  	                	;
 Node-128            	1662.0      	0.005555556 	                	;
 Node-129            	1661.0      	0.0         	                	;
 Node-1595           	1661.0      	0.0         	                	;
 Node-1626           	1689.0      	0.0         	                	;
 Node-132            	1688.0      	0.012962963 	                	;
 Node-591            	1689.0      	0.0         	                	;
 Node-134            	1689.0      	0.0         	                	;
 Node-135            	1689.0      	0.005555556 	                	;
 Node-136            	1692.0      	0.005555556 	                	;
 Node-137            	1695.0      	0.0         	                	;
 Node-251            	1698.0      	0.0         	                	;
 Node-309            	1699.0      	0.0         	                	;
 Node-1766           	1746.0      	0.0         	                	;
 Node-141            	1746.0      	0.0         	                	;
 Node-142            	1744.0      	0.0         	                	;
 Node-143            	1741.0      	0.0         	                	;
 Node-144            	1739.0      	0.0         	                	;
 Node-145            	1738.0      	0.0         	                	;
 Node-146            	1735.0      	0.0         	                	;
 Node-147            	1733.0      	0.0         	                	;
 Node-148            	1728.0      	0.0         	                	;
 Node-149            	1716.0      	0.0         	                	;
 Node-150            	1707.0      	0.0         	                	;
 Node-151            	1700.0      	0.0         	                	;
 Node-153            	1700.0      	0.138888889 	                	;
 Node-154            	1701.0      	0.0         	                	;
 Node-155            	1701.0      	0.0         	                	;
 Node-156            	1704.0      	0.0         	                	;
 Node-157            	1709.0      	0.0         	                	;
 Node-158            	1712.0      	0.0         	                	;
 Node-159            	1710.0      	0.0         	                	;
 Node-160            	1707.0      	0.0         	                	;
 Node-3340           	1703.0      	0.0         	                	;
 Node-3437           	1896.0      	0.0         	                	;
 Node-1619           	1896.0      	0.0         	                	;
 Node-3352           	1896.0      	0.0         	                	;
 Node-166            	1701.0      	0.0         	                	;
 Node-167            	1699.0      	0.0         	                	;
 Node-168            	1698.0      	0.0         	                	;
 Node-169            	1696.0      	0.0         	                	;
 Node-170            	1695.0      	0.231481481 	                	;
 Node-196            	1663.0      	0.0         	                	;
 Node-172            	1663.0      	0.0         	                	;
 Node-173            	1662.0      	0.0         	                	;
 Node-174            	1662.0      	0.231481481 	                	;
 Node-1488           	1662.0      	0.0         	                	;
 Node-176            	1660.0      	0.0         	                	;
 Node-177            	1658.0      	0.0         	                	;
 Node-178            	1658.0      	0.007407407 	                	;
 Node-1493           	1659.0      	0.0         	                	;
 Node-180            	1658.0      	0.0         	                	;
 Node-181            	1658.0      	0.00462963  	                	;
 Node-187            	1659.0      	0.0         	                	;
 Node-183            	1659.0      	0.005555556 	                	;
 Node-184            	1659.0      	0.324074074 	                	;
 Node-185            	1659.0      	0.0         	                	;
 Node-186            	1658.0      	0.0         	                	;
 Node-188            	1658.0      	0.0         	                	;
 Node-189            	1658.0      	0.0         	                	;
 Node-190            	1659.0      	0.0         	                	;
 Node-191            	1660.0      	0.0         	                	;
 Node-192            	1660.0      	0.0         	                	;
 Node-222            	1661.0      	0.0         	                	;
 Node-194            	1661.0      	0.0         	                	;
 Node-195            	1662.0      	0.0         	                	;
 Node-197            	1663.0      	0.0         	                	;
 Node-198            	1664.0      	0.0         	                	;
 Node-199            	1665.0      	0.0         	                	;
 Node-226            	1666.0      	0.0         	                	;
 Node-201            	1666.0      	0.0         	                	;
 Node-202            	1667.0      	0.0         	                	;
 Node-1553           	1670.0      	0.0         	                	;
 Node-205            	1669.0      	0.0         	                	;
 Node-206            	1668.0      	0.003703704 	                	;
 Node-1347           	1695.0      	0.0         	                	;
 Node-208            	1694.0      	0.0         	                	;
 Node-209            	1694.0      	0.0         	                	;
 Node-210            	1693.0      	0.0         	                	;
 Node-211            	1692.0      	0.0         	                	;
 Node-212            	1687.0      	0.0         	                	;
 Node-213            	1682.0      	0.0         	                	;
 Node-214            	1677.0      	0.0         	                	;
 Node-215            	1674.0      	0.0         	                	;
 Node-216            	1670.0      	0.0         	                	;
 Node-1484           	1669.0      	0.0         	                	;
 Node-219            	1668.0      	0.0         	                	;
 Node-220            	1668.0      	0.0         	                	;
 Node-223            	1660.0      	0.023148148 	                	;
 Node-224            	1667.0      	0.003703704 	                	;
 Node-225            	1667.0      	0.0         	                	;
 Node-288            	1701.0      	0.0         	                	;
 Node-228            	1701.0      	0.0         	                	;
 Node-229            	1700.0      	0.0         	                	;
 Node-230            	1701.0      	0.0         	                	;
 Node-243            	1701.0      	0.0         	                	;
 Node-232            	1701.0      	0.0         	                	;
 Node-233            	1701.0      	0.0         	                	;
 Node-246            	1698.0      	0.0         	                	;
 Node-249            	1698.0      	0.0         	                	;
 Node-236            	1698.0      	0.0         	                	;
 Node-237            	1698.0      	0.0         	                	;
 Node-238            	1699.0      	0.0         	                	;
 Node-239            	1699.0      	0.0         	                	;
 Node-240            	1699.0      	0.0         	                	;
 Node-241            	1696.0      	0.0         	                	;
 Node-244            	1696.0      	0.0         	                	;
 Node-245            	1696.0      	0.007407407 	                	;
 Node-247            	1696.0      	0.0         	                	;
 Node-248            	1695.0      	0.00462963  	                	;
 Node-250            	1697.0      	0.005555556 	                	;
 Node-252            	1697.0      	0.0         	                	;
 Node-253            	1698.0      	0.007407407 	                	;
 Node-254            	1698.0      	0.0         	                	;
 Node-305            	1688.0      	0.0         	                	;
 Node-256            	1690.0      	0.0         	                	;
 Node-257            	1690.0      	0.005555556 	                	;
 Node-303            	1686.0      	0.0         	                	;
 Node-259            	1685.0      	0.0         	                	;
 Node-260            	1686.0      	0.005555556 	                	;
 Node-402            	1702.0      	0.0         	                	;
 Node-262            	1701.0      	0.0         	                	;
 Node-263            	1700.0      	0.0         	                	;
 Node-264            	1696.0      	0.0         	                	;
 Node-265            	1692.0      	0.0         	                	;
 Node-266            	1690.0      	0.0         	                	;
 Node-267            	1689.0      	0.0         	                	;
 Node-268            	1690.0      	0.0         	                	;
 Node-286            	1690.0      	0.0         	                	;
 Node-270            	1688.0      	0.0         	                	;
 Node-271            	1685.0      	0.0         	                	;
 Node-272            	1687.0      	0.0         	                	;
 Node-273            	1687.0      	0.0         	                	;
 Node-274            	1688.0      	0.0         	                	;
 Node-275            	1689.0      	0.0         	                	;
 Node-276            	1689.0      	0.0         	                	;
 Node-277            	1689.0      	0.0         	                	;
 Node-318            	1690.0      	0.0         	                	;
 Node-279            	1691.0      	0.0         	                	;
 Node-280            	1694.0      	0.0         	                	;
 Node-281            	1697.0      	0.0         	                	;
 Node-282            	1699.0      	0.0         	                	;
 Node-283            	1700.0      	0.0         	                	;
 Node-284            	1701.0      	0.0         	                	;
 Node-287            	1694.0      	0.005555556 	                	;
 Node-289            	1701.0      	0.0         	                	;
 Node-291            	1699.0      	0.0         	                	;
 Node-292            	1697.0      	0.0         	                	;
 Node-293            	1696.0      	0.0         	                	;
 Node-294            	1696.0      	0.277777778 	                	;
 Node-1829           	1690.0      	0.0         	                	;
 Node-296            	1690.0      	0.008333333 	                	;
 Node-297            	1688.0      	0.011111111 	                	;
 Node-298            	1689.0      	0.0         	                	;
 Node-299            	1689.0      	0.0         	                	;
 Node-300            	1689.0      	0.0         	                	;
 Node-301            	1688.0      	0.0         	                	;
 Node-302            	1687.0      	0.0         	                	;
 Node-304            	1687.0      	0.0         	                	;
 Node-306            	1691.0      	0.0         	                	;
 Node-307            	1694.0      	0.0         	                	;
 Node-308            	1697.0      	0.0         	                	;
 Node-310            	1699.0      	0.0         	                	;
 Node-311            	1697.0      	0.0         	                	;
 Node-312            	1697.0      	0.0         	                	;
 Node-313            	1696.0      	0.0         	                	;
 Node-314            	1695.0      	0.0         	                	;
 Node-315            	1695.0      	0.0         	                	;
 Node-316            	1694.0      	0.0         	                	;
 Node-317            	1692.0      	0.0         	                	;
 Node-319            	1690.0      	0.324074074 	                	;
 Node-320            	1692.0      	0.0         	                	;
 Node-321            	1695.0      	0.0         	                	;
 Node-322            	1696.0      	0.0         	                	;
 Node-323            	1699.0      	0.0         	                	;
 Node-324            	1702.0      	0.0         	                	;
 Node-325            	1707.0      	0.0         	                	;
 Node-326            	1712.0      	0.0         	                	;
 Node-327            	1718.0      	0.0         	                	;
 Node-328            	1724.0      	0.0         	                	;
 Node-329            	1732.0      	0.0         	                	;
 Node-330            	1736.0      	0.0         	                	;
 Node-331            	1741.0      	0.0         	                	;
 Node-333            	1748.0      	0.0         	                	;
 Node-334            	1750.0      	0.0         	                	;
 Node-335            	1753.0      	0.0         	                	;
 Node-336            	1757.0      	0.0         	                	;
 Node-337            	1762.0      	0.0         	                	;
 Node-338            	1765.0      	0.0         	                	;
 Node-339            	1767.0      	0.0         	                	;
 Node-340            	1769.0      	0.0         	                	;
 Node-341            	1769.0      	0.0         	                	;
 Node-342            	1769.0      	0.0         	                	;
 Node-343            	1770.0      	0.0         	                	;
 Node-344            	1770.0      	0.0         	                	;
 Node-851            	1721.0      	0.0         	                	;
 Node-347            	1722.0      	0.0         	                	;
 Node-348            	1721.0      	0.0         	                	;
 Node-349            	1720.0      	0.007407407 	                	;
 Node-1913           	1703.0      	0.0         	                	;
 Node-351            	1703.0      	0.0         	                	;
 Node-352            	1701.0      	0.0         	                	;
 Node-353            	1693.0      	0.0         	                	;
 Node-354            	1681.0      	0.0         	                	;
 Node-355            	1662.0      	0.0         	                	;
 Node-356            	1650.0      	0.0         	                	;
 Node-357            	1648.0      	0.0         	                	;
 Node-358            	1648.0      	0.0         	                	;
 Node-359            	1666.0      	0.0         	                	;
 Node-360            	1682.0      	0.0         	                	;
 Node-361            	1693.0      	0.0         	                	;
 Node-362            	1699.0      	0.0         	                	;
 Node-363            	1701.0      	0.0         	                	;
 Node-364            	1702.0      	0.0         	                	;
 Node-367            	1702.0      	0.0         	                	;
 Node-1579           	1660.0      	0.0         	                	;
 Node-370            	1660.0      	0.0         	                	;
 Node-371            	1658.0      	0.0         	                	;
 Node-372            	1653.0      	0.0         	                	;
 Node-373            	1653.0      	0.0         	                	;
 Node-374            	1652.0      	0.0         	                	;
 Node-375            	1650.0      	0.0         	                	;
 Node-376            	1652.0      	0.0         	                	;
 Node-377            	1656.0      	0.0         	                	;
 Node-463            	1663.0      	0.0         	                	;
 Node-379            	1668.0      	0.0         	                	;
 Node-380            	1673.0      	0.0         	                	;
 Node-381            	1678.0      	0.0         	                	;
 Node-382            	1681.0      	0.0         	                	;
 Node-435            	1681.0      	0.0         	                	;
 Node-424            	1681.0      	0.0         	                	;
 Node-385            	1681.0      	0.0         	                	;
 Node-386            	1680.0      	0.0         	                	;
 Node-387            	1682.0      	0.0         	                	;
 Node-388            	1686.0      	0.0         	                	;
 Node-389            	1687.0      	0.0         	                	;
 Node-390            	1690.0      	0.0         	                	;
 Node-391            	1690.0      	0.0         	                	;
 Node-392            	1692.0      	0.0         	                	;
 Node-393            	1697.0      	0.0         	                	;
 Node-394            	1696.0      	0.0         	                	;
 Node-395            	1696.0      	0.0         	                	;
 Node-3363           	1743.0      	0.0         	                	;
 Node-400            	1742.0      	0.0         	                	;
 Node-401            	1742.0      	0.277777778 	                	;
 Node-403            	1702.0      	0.0         	                	;
 Node-404            	1702.0      	0.0         	                	;
 Node-405            	1703.0      	0.0         	                	;
 Node-406            	1705.0      	0.0         	                	;
 Node-407            	1707.0      	0.0         	                	;
 Node-408            	1702.0      	0.0         	                	;
 Node-409            	1703.0      	0.0         	                	;
 Node-410            	1707.0      	0.0         	                	;
 Node-411            	1714.0      	0.0         	                	;
 Node-412            	1728.0      	0.0         	                	;
 Node-413            	1725.0      	0.0         	                	;
 Node-414            	1728.0      	0.0         	                	;
 Node-415            	1727.0      	0.0         	                	;
 Node-416            	1730.0      	0.0         	                	;
 Node-417            	1730.0      	0.0         	                	;
 Node-418            	1730.0      	0.0         	                	;
 Node-419            	1735.0      	0.0         	                	;
 Node-420            	1741.0      	0.0         	                	;
 Node-421            	1744.0      	0.0         	                	;
 Node-422            	1743.0      	0.0         	                	;
 Node-425            	1681.0      	0.0         	                	;
 Node-426            	1680.0      	0.0         	                	;
 Node-429            	1680.0      	0.0         	                	;
 Node-430            	1679.0      	0.0         	                	;
 Node-431            	1677.0      	0.0         	                	;
 Node-432            	1677.0      	0.231481481 	                	;
 Node-1528           	1691.0      	0.0         	                	;
 Node-434            	1690.0      	0.007407407 	                	;
 Node-436            	1681.0      	0.0         	                	;
 Node-437            	1682.0      	0.046296296 	                	;
 Node-1583           	1667.0      	0.0         	                	;
 Node-440            	1667.0      	0.0         	                	;
 Node-441            	1666.0      	0.0         	                	;
 Node-442            	1665.0      	0.0         	                	;
 Node-443            	1663.0      	0.0         	                	;
 Node-444            	1663.0      	0.0         	                	;
 Node-445            	1660.0      	0.0         	                	;
 Node-446            	1659.0      	0.0         	                	;
 Node-447            	1659.0      	0.0         	                	;
 Node-458            	1658.0      	0.0         	                	;
 Node-449            	1658.0      	0.0         	                	;
 Node-450            	1658.0      	0.0         	                	;
 Node-461            	1657.0      	0.0         	                	;
 Node-452            	1659.0      	0.0         	                	;
 Node-453            	1659.0      	0.0         	                	;
 Node-454            	1660.0      	0.0         	                	;
 Node-455            	1660.0      	0.0         	                	;
 Node-456            	1660.0      	0.0         	                	;
 Node-457            	1659.0      	0.796296296 	                	;
 Node-459            	1657.0      	0.0         	                	;
 Node-460            	1657.0      	0.00462963  	                	;
 Node-462            	1656.0      	0.00462963  	                	;
 Node-464            	1663.0      	0.006481481 	                	;
 Node-484            	1655.0      	0.0         	                	;
 Node-466            	1655.0      	0.0         	                	;
 Node-467            	1655.0      	0.0         	                	;
 Node-468            	1655.0      	0.006481481 	                	;
 Node-1552           	1671.0      	0.0         	                	;
 Node-470            	1672.0      	0.0         	                	;
 Node-471            	1673.0      	0.005555556 	                	;
 Node-1666           	1685.0      	0.0         	                	;
 Node-473            	1684.0      	0.0         	                	;
 Node-474            	1685.0      	0.005555556 	                	;
 Node-1534           	1656.0      	0.0         	                	;
 Node-476            	1656.0      	0.0         	                	;
 Node-477            	1656.0      	0.006481481 	                	;
 Node-1536           	1656.0      	0.0         	                	;
 Node-479            	1655.0      	0.0         	                	;
 Node-480            	1655.0      	0.0         	                	;
 Node-481            	1655.0      	0.0         	                	;
 Node-482            	1654.0      	0.0         	                	;
 Node-483            	1655.0      	0.0         	                	;
 Node-485            	1656.0      	0.0         	                	;
 Node-486            	1657.0      	0.0         	                	;
 Node-487            	1658.0      	0.0         	                	;
 Node-491            	1659.0      	0.0         	                	;
 Node-489            	1660.0      	0.0         	                	;
 Node-490            	1659.0      	0.007407407 	                	;
 Node-492            	1659.0      	0.006481481 	                	;
 Node-493            	1720.0      	0.008333333 	                	;
 Node-494            	1721.0      	0.0         	                	;
 Node-495            	1721.0      	0.0         	                	;
 Node-498            	1721.0      	0.0         	                	;
 Node-508            	1721.0      	0.0         	                	;
 Node-499            	1721.0      	0.0         	                	;
 Node-500            	1721.0      	0.008333333 	                	;
 Node-1665           	1687.0      	0.0         	                	;
 Node-502            	1685.0      	0.0         	                	;
 Node-503            	1684.0      	0.002777778 	                	;
 Node-1540           	1684.0      	0.0         	                	;
 Node-505            	1683.0      	0.001851852 	                	;