[TITLE]
20435 Gaseke WSS in Huye District

[JUNCTIONS]
;ID                  	Elev        	Demand      	Pattern         
 Node-2              	1931.0      	0.0         	                	;
 Node-3              	1931.0      	0.0         	                	;
 Node-4              	1927.0      	0.0         	                	;
 Node-98             	1927.0      	0.0         	                	;
 Node-7              	1931.0      	0.0         	                	;
 Node-8              	1931.0      	0.0         	                	;
 Node-9              	1927.0      	0.0         	                	;
 Node-97             	1678.0      	0.0         	                	;
 Node-83             	1678.0      	0.0         	                	;
 Node-15             	1678.0      	0.0         	                	;
 Node-116            	1847.0      	0.0         	                	;
 Node-18             	1839.0      	0.0         	                	;
 Node-19             	1830.0      	0.0         	                	;
 Node-20             	1827.0      	0.0         	                	;
 Node-21             	1828.0      	0.0         	                	;
 Node-22             	1828.0      	0.0         	                	;
 Node-23             	1826.0      	0.0         	                	;
 Node-24             	1827.0      	0.0         	                	;
 Node-25             	1833.0      	0.0         	                	;
 Node-26             	1833.0      	0.0         	                	;
 Node-27             	1833.0      	0.0         	                	;
 Node-28             	1828.0      	0.0         	                	;
 Node-29             	1826.0      	0.0         	                	;
 Node-30             	1831.0      	0.0         	                	;
 Node-31             	1831.0      	0.0         	                	;
 Node-32             	1830.0      	0.0         	                	;
 Node-33             	1827.0      	0.0         	                	;
 Node-34             	1823.0      	0.0         	                	;
 Node-35             	1820.0      	0.0         	                	;
 Node-78             	1814.0      	0.0         	                	;
 Node-37             	1809.0      	0.0         	                	;
 Node-38             	1802.0      	0.0         	                	;
 Node-39             	1793.0      	0.0         	                	;
 Node-40             	1787.0      	0.0         	                	;
 Node-41             	1780.0      	0.0         	                	;
 Node-42             	1778.0      	0.0         	                	;
 Node-43             	1773.0      	0.0         	                	;
 Node-44             	1767.0      	0.0         	                	;
 Node-45             	1762.0      	0.0         	                	;
 Node-46             	1757.0      	0.0         	                	;
 Node-47             	1751.0      	0.0         	                	;
 Node-48             	1743.0      	0.0         	                	;
 Node-49             	1741.0      	0.0         	                	;
 Node-50             	1740.0      	0.0         	                	;
 Node-51             	1742.0      	0.0         	                	;
 Node-52             	1746.0      	0.0         	                	;
 Node-73             	1747.0      	0.0         	                	;
 Node-54             	1744.0      	0.0         	                	;
 Node-55             	1741.0      	0.0         	                	;
 Node-56             	1737.0      	0.0         	                	;
 Node-57             	1729.0      	0.0         	                	;
 Node-58             	1721.0      	0.0         	                	;
 Node-59             	1715.0      	0.0         	                	;
 Node-60             	1708.0      	0.0         	                	;
 Node-61             	1702.0      	0.0         	                	;
 Node-62             	1693.0      	0.0         	                	;
 Node-63             	1689.0      	0.0         	                	;
 Node-85             	1688.0      	0.0         	                	;
 Node-65             	1674.0      	0.074074074 	                	;
 Node-66             	1675.0      	0.0         	                	;
 Node-67             	1678.0      	0.0         	                	;
 Node-68             	1677.0      	0.0         	                	;
 Node-69             	1678.0      	0.0         	                	;
 Node-75             	1745.0      	0.0         	                	;
 Node-76             	1745.0      	0.0         	                	;
 Node-77             	1744.0      	0.074074074 	                	;
 Node-79             	1812.0      	0.0         	                	;
 Node-81             	1812.0      	0.0         	                	;
 Node-82             	1812.0      	0.013888889 	                	;
 Node-86             	1685.0      	0.0         	                	;
 Node-88             	1687.0      	0.0         	                	;
 Node-89             	1686.0      	0.0         	                	;
 Node-90             	1683.0      	0.0         	                	;
 Node-91             	1683.0      	0.0         	                	;
 Node-92             	1683.0      	0.0         	                	;
 Node-93             	1682.0      	0.0         	                	;
 Node-94             	1680.0      	0.0         	                	;
 Node-95             	1678.0      	0.0         	                	;
 Node-96             	1679.0      	0.0         	                	;
 Node-99             	1922.0      	0.0         	                	;
 Node-100            	1918.0      	0.0         	                	;
 Node-101            	1913.0      	0.0         	                	;
 Node-102            	1911.0      	0.0         	                	;
 Node-103            	1907.0      	0.0         	                	;
 Node-104            	1906.0      	0.0         	                	;
 Node-105            	1901.0      	0.0         	                	;
 Node-106            	1891.0      	0.0         	                	;
 Node-107            	1888.0      	0.0         	                	;
 Node-108            	1884.0      	0.0         	                	;
 Node-109            	1881.0      	0.0         	                	;
 Node-110            	1879.0      	0.0         	                	;
 Node-111            	1877.0      	0.0         	                	;
 Node-112            	1866.0      	0.0         	                	;
 Node-113            	1864.0      	0.0         	                	;
 Node-114            	1860.0      	0.0         	                	;
 Node-115            	1856.0      	0.0         	                	;

[RESERVOIRS]
;ID                  	Head        	Pattern         
 Surface water-5596  	1934        	                	;
 Spring-5597         	1938        	                	;

[TANKS]
;ID                  	Elevation   	InitLevel   	MinLevel    	MaxLevel    	Diameter    	MinVol      	VolCurve
 Tank-19619          	1677        	0.75        	0.15000000000000002     	1.5         	5           	10.0        	                	;
 Tank-19620          	1745        	0.75        	0.15000000000000002     	1.5         	5           	10.0        	                	;
 Tank-19621          	1678        	0.75        	0.15000000000000002     	1.5         	5           	20.0        	                	;
 Tank-19622          	1678        	0.75        	0.15000000000000002     	1.5         	5           	15.0        	                	;
 Tank-19623          	1812        	0.75        	0.15000000000000002     	1.5         	5           	10.0        	                	;

[PIPES]
;ID                  	Node1               	Node2               	Length      	Diameter    	Roughness   	MinorLoss   	Status
 Pipe-125262-0       	Spring-5597         	Node-2              	5.234       	75          	100         	0           	Open  	;
 Pipe-125262-1       	Node-2              	Node-3              	7.889       	75          	100         	0           	Open  	;
 Pipe-125262-2       	Node-3              	Node-4              	9.256       	75          	100         	0           	Open  	;
 Pipe-125262-3       	Node-4              	Node-98             	5.166       	75          	100         	0           	Open  	;
 Pipe-125263-0       	Surface water-5596  	Node-7              	4.907       	90          	100         	0           	Open  	;
 Pipe-125263-1       	Node-7              	Node-8              	7.635       	90          	100         	0           	Open  	;
 Pipe-125263-2       	Node-8              	Node-9              	9.164       	90          	100         	0           	Open  	;
 Pipe-125263-3       	Node-9              	Node-98             	5.127       	90          	100         	0           	Open  	;
 Pipe-125261-0       	Node-97             	Tank-19619          	9.929       	50          	100         	0           	Open  	;
 Pipe-125261-1       	Tank-19619          	Tank-19621          	5.038       	50          	100         	0           	Open  	;
 Pipe-125260-0       	Node-83             	Node-15             	1.67        	63          	100         	0           	Open  	;
 Pipe-125260-1       	Node-15             	Tank-19621          	1.923       	63          	100         	0           	Open  	;
 Pipe-125255-0       	Node-116            	Node-18             	36.887      	63          	100         	0           	Open  	;
 Pipe-125255-1       	Node-18             	Node-19             	34.776      	63          	100         	0           	Open  	;
 Pipe-125255-2       	Node-19             	Node-20             	36.922      	63          	100         	0           	Open  	;
 Pipe-125255-3       	Node-20             	Node-21             	32.645      	63          	100         	0           	Open  	;
 Pipe-125255-4       	Node-21             	Node-22             	52.431      	63          	100         	0           	Open  	;
 Pipe-125255-5       	Node-22             	Node-23             	45.865      	63          	100         	0           	Open  	;
 Pipe-125255-6       	Node-23             	Node-24             	43.022      	63          	100         	0           	Open  	;
 Pipe-125255-7       	Node-24             	Node-25             	36.077      	63          	100         	0           	Open  	;
 Pipe-125255-8       	Node-25             	Node-26             	36.78       	63          	100         	0           	Open  	;
 Pipe-125255-9       	Node-26             	Node-27             	40.577      	63          	100         	0           	Open  	;
 Pipe-125255-10      	Node-27             	Node-28             	39.262      	63          	100         	0           	Open  	;
 Pipe-125255-11      	Node-28             	Node-29             	46.387      	63          	100         	0           	Open  	;
 Pipe-125255-12      	Node-29             	Node-30             	40.854      	63          	100         	0           	Open  	;
 Pipe-125255-13      	Node-30             	Node-31             	33.016      	63          	100         	0           	Open  	;
 Pipe-125255-14      	Node-31             	Node-32             	27.296      	63          	100         	0           	Open  	;
 Pipe-125255-15      	Node-32             	Node-33             	29.566      	63          	100         	0           	Open  	;
 Pipe-125255-16      	Node-33             	Node-34             	24.304      	63          	100         	0           	Open  	;
 Pipe-125255-17      	Node-34             	Node-35             	19.984      	63          	100         	0           	Open  	;
 Pipe-125255-18      	Node-35             	Node-78             	19.065      	63          	100         	0           	Open  	;
 Pipe-125255-19      	Node-78             	Node-37             	27.194      	63          	100         	0           	Open  	;
 Pipe-125255-20      	Node-37             	Node-38             	26.583      	63          	100         	0           	Open  	;
 Pipe-125255-21      	Node-38             	Node-39             	33.052      	63          	100         	0           	Open  	;
 Pipe-125255-22      	Node-39             	Node-40             	24.966      	63          	100         	0           	Open  	;
 Pipe-125255-23      	Node-40             	Node-41             	22.224      	63          	100         	0           	Open  	;
 Pipe-125255-24      	Node-41             	Node-42             	22.088      	63          	100         	0           	Open  	;
 Pipe-125255-25      	Node-42             	Node-43             	21.759      	63          	100         	0           	Open  	;
 Pipe-125255-26      	Node-43             	Node-44             	26.626      	63          	100         	0           	Open  	;
 Pipe-125255-27      	Node-44             	Node-45             	21.064      	63          	100         	0           	Open  	;
 Pipe-125255-28      	Node-45             	Node-46             	23.296      	63          	100         	0           	Open  	;
 Pipe-125255-29      	Node-46             	Node-47             	17.566      	63          	100         	0           	Open  	;
 Pipe-125255-30      	Node-47             	Node-48             	18.163      	63          	100         	0           	Open  	;
 Pipe-125255-31      	Node-48             	Node-49             	24.789      	63          	100         	0           	Open  	;
 Pipe-125255-32      	Node-49             	Node-50             	21.25       	63          	100         	0           	Open  	;
 Pipe-125255-33      	Node-50             	Node-51             	21.101      	63          	100         	0           	Open  	;
 Pipe-125255-34      	Node-51             	Node-52             	23.7        	63          	100         	0           	Open  	;
 Pipe-125255-35      	Node-52             	Node-73             	19.922      	63          	100         	0           	Open  	;
 Pipe-125255-36      	Node-73             	Node-54             	22.506      	63          	100         	0           	Open  	;
 Pipe-125255-37      	Node-54             	Node-55             	18.9        	63          	100         	0           	Open  	;
 Pipe-125255-38      	Node-55             	Node-56             	39.147      	63          	100         	0           	Open  	;
 Pipe-125255-39      	Node-56             	Node-57             	34.805      	63          	100         	0           	Open  	;
 Pipe-125255-40      	Node-57             	Node-58             	34.318      	63          	100         	0           	Open  	;
 Pipe-125255-41      	Node-58             	Node-59             	30.281      	63          	100         	0           	Open  	;
 Pipe-125255-42      	Node-59             	Node-60             	36.049      	63          	100         	0           	Open  	;
 Pipe-125255-43      	Node-60             	Node-61             	36.663      	63          	100         	0           	Open  	;
 Pipe-125255-44      	Node-61             	Node-62             	39.741      	63          	100         	0           	Open  	;
 Pipe-125255-45      	Node-62             	Node-63             	36.939      	63          	100         	0           	Open  	;
 Pipe-125255-46      	Node-63             	Node-85             	32.073      	63          	100         	0           	Open  	;
 Pipe-125256-0       	Node-65             	Node-66             	13.83       	63          	100         	0           	Open  	;
 Pipe-125256-1       	Node-66             	Node-67             	14.544      	63          	100         	0           	Open  	;
 Pipe-125256-2       	Node-67             	Node-68             	6.805       	63          	100         	0           	Open  	;
 Pipe-125256-3       	Node-68             	Node-69             	7.417       	63          	100         	0           	Open  	;
 Pipe-125256-4       	Node-69             	Tank-19621          	2.937       	63          	100         	0           	Open  	;
 Pipe-125256-5       	Tank-19621          	Tank-19622          	3.663       	63          	100         	0           	Open  	;
 Pipe-125257-0       	Node-97             	Node-83             	5.061       	63          	100         	0           	Open  	;
 Pipe-125258-0       	Node-85             	Node-86             	36.37       	63          	100         	0           	Open  	;
 Pipe-125258-1       	Node-86             	Node-88             	28.99       	63          	100         	0           	Open  	;
 Pipe-125259-0       	Node-88             	Node-89             	41.19       	63          	100         	0           	Open  	;
 Pipe-125259-1       	Node-89             	Node-90             	42.285      	63          	100         	0           	Open  	;
 Pipe-125259-2       	Node-90             	Node-91             	45.016      	63          	100         	0           	Open  	;
 Pipe-125259-3       	Node-91             	Node-92             	42.279      	63          	100         	0           	Open  	;
 Pipe-125259-4       	Node-92             	Node-93             	38.561      	63          	100         	0           	Open  	;
 Pipe-125259-5       	Node-93             	Node-94             	44.883      	63          	100         	0           	Open  	;
 Pipe-125259-6       	Node-94             	Node-95             	32.561      	63          	100         	0           	Open  	;
 Pipe-125259-8       	Node-96             	Node-97             	12.163      	63          	100         	0           	Open  	;
 Pipe-125266-0       	Node-98             	Node-99             	20.225      	63          	100         	0           	Open  	;
 Pipe-125266-1       	Node-99             	Node-100            	25.537      	63          	100         	0           	Open  	;
 Pipe-125266-2       	Node-100            	Node-101            	16.901      	63          	100         	0           	Open  	;
 Pipe-125266-3       	Node-101            	Node-102            	20.034      	63          	100         	0           	Open  	;
 Pipe-125266-4       	Node-102            	Node-103            	28.533      	63          	100         	0           	Open  	;
 Pipe-125266-5       	Node-103            	Node-104            	30.614      	63          	100         	0           	Open  	;
 Pipe-125266-6       	Node-104            	Node-105            	30.678      	63          	100         	0           	Open  	;
 Pipe-125266-7       	Node-105            	Node-106            	29.42       	63          	100         	0           	Open  	;
 Pipe-125266-8       	Node-106            	Node-107            	27.175      	63          	100         	0           	Open  	;
 Pipe-125266-9       	Node-107            	Node-108            	30.296      	63          	100         	0           	Open  	;
 Pipe-125266-10      	Node-108            	Node-109            	28.361      	63          	100         	0           	Open  	;
 Pipe-125266-11      	Node-109            	Node-110            	42.395      	63          	100         	0           	Open  	;
 Pipe-125266-12      	Node-110            	Node-111            	43.176      	63          	100         	0           	Open  	;
 Pipe-125266-13      	Node-111            	Node-112            	48.999      	63          	100         	0           	Open  	;
 Pipe-125266-14      	Node-112            	Node-113            	38.412      	63          	100         	0           	Open  	;
 Pipe-125266-15      	Node-113            	Node-114            	33.152      	63          	100         	0           	Open  	;
 Pipe-125266-16      	Node-114            	Node-115            	28.819      	63          	100         	0           	Open  	;
 Pipe-125266-17      	Node-115            	Node-116            	35.135      	63          	100         	0           	Open  	;
 Pipe-125264-0       	Node-73             	Tank-19620          	3.183       	25          	100         	0           	Open  	;
 Pipe-125264-1       	Tank-19620          	Node-75             	3.675       	25          	100         	0           	Open  	;
 Pipe-125264-2       	Node-75             	Node-76             	10.775      	25          	100         	0           	Open  	;
 Pipe-125264-3       	Node-76             	Node-77             	6.736       	25          	100         	0           	Open  	;
 Pipe-125265-0       	Node-78             	Node-79             	6.248       	25          	100         	0           	Open  	;
 Pipe-125265-1       	Node-79             	Tank-19623          	5.931       	25          	100         	0           	Open  	;
 Pipe-125265-2       	Tank-19623          	Node-81             	5.62        	25          	100         	0           	Open  	;
 Pipe-125265-3       	Node-81             	Node-82             	6.016       	25          	100         	0           	Open  	;

[PUMPS]
;ID                  	Node1               	Node2               	Parameters  

[VALVES]
;ID                  	Node1           	Node2           	Diameter    	Type        	Setting     	MinorLoss   
 TCV-25430           	Node-95             	Node-96             	63.0        	TCV         	0           	0.0         	;
 TCV-25432           	Node-83             	Tank-19622          	63.0        	TCV         	0           	0.0         	;

[TAGS]

[DEMANDS]
;Junction        	Demand      	Pattern         	Category

[STATUS]
;ID              	Status/Setting

[PATTERNS]
;ID              	Multipliers

[CURVES]
;ID              	X-Value     	Y-Value     

[CONTROLS]

[RULES]

[ENERGY]
 Global Efficiency  	75
 Global Price       	0
 Demand Charge      	0

[EMITTERS]
;Junction        	Coefficient

[QUALITY]
;Node            	InitQual

[SOURCES]
;Node            	Type        	Quality     	Pattern

[REACTIONS]
;Type     	Pipe/Tank       	Coefficient


[REACTIONS]
 Order Bulk            	1
 Order Tank            	1
 Order Wall            	1
 Global Bulk           	0
 Global Wall           	0
 Limiting Potential    	0
 Roughness Correlation 	0

[MIXING]
;Tank            	Model

[TIMES]
 Duration           	0
 Hydraulic Timestep 	1:00
 Quality Timestep   	0:05
 Pattern Timestep   	1:00
 Pattern Start      	0:00
 Report Timestep    	1:00
 Report Start       	0:00
 Start ClockTime    	12 am
 Statistic          	None

[REPORT]
 Status             	No
 Summary            	No
 Page               	0

[OPTIONS]
 Units              	LPS
 Headloss           	H-W
 Specific Gravity   	1
 Viscosity          	1
 Trials             	40
 Accuracy           	0.001
 CHECKFREQ          	2
 MAXCHECK           	10
 DAMPLIMIT          	0
 Unbalanced         	Continue 10
 Pattern            	0
 Demand Multiplier  	1.0
 Emitter Exponent   	0.5
 Quality            	None mg/L
 Diffusivity        	1
 Tolerance          	0.01

[COORDINATES]
;Node                	X-Coord         	Y-Coord         
 Node-2              	29.65423        	-2.55738        
 Node-3              	29.654293       	-2.557346       
 Node-4              	29.654351       	-2.557287       
 Node-98             	29.654382       	-2.557252       
 Node-7              	29.654226       	-2.557366       
 Node-8              	29.654291       	-2.557343       
 Node-9              	29.65435        	-2.557285       
 Node-97             	29.668905       	-2.542682       
 Node-83             	29.668947       	-2.542666       
 Node-15             	29.668947       	-2.542651       
 Node-116            	29.657427       	-2.553365       
 Node-18             	29.657626       	-2.553098       
 Node-19             	29.657796       	-2.552835       
 Node-20             	29.65795        	-2.552539       
 Node-21             	29.658064       	-2.552268       
 Node-22             	29.658264       	-2.551839       
 Node-23             	29.658488       	-2.551491       
 Node-24             	29.658753       	-2.551209       
 Node-25             	29.658969       	-2.550966       
 Node-26             	29.659198       	-2.550726       
 Node-27             	29.659455       	-2.550467       
 Node-28             	29.65969        	-2.550202       
 Node-29             	29.659888       	-2.549834       
 Node-30             	29.660016       	-2.549488       
 Node-31             	29.660136       	-2.549215       
 Node-32             	29.660259       	-2.549002       
 Node-33             	29.660413       	-2.548785       
 Node-34             	29.660551       	-2.548615       
 Node-35             	29.660669       	-2.548479       
 Node-78             	29.660776       	-2.548344       
 Node-37             	29.660942       	-2.548164       
 Node-38             	29.661118       	-2.548002       
 Node-39             	29.661346       	-2.54781        
 Node-40             	29.661526       	-2.547676       
 Node-41             	29.661693       	-2.547566       
 Node-42             	29.661867       	-2.54747        
 Node-43             	29.662042       	-2.547383       
 Node-44             	29.662269       	-2.547308       
 Node-45             	29.662452       	-2.547259       
 Node-46             	29.662657       	-2.547216       
 Node-47             	29.662808       	-2.547173       
 Node-48             	29.662964       	-2.547124       
 Node-49             	29.663169       	-2.547036       
 Node-50             	29.663342       	-2.546956       
 Node-51             	29.663515       	-2.546877       
 Node-52             	29.663713       	-2.5468         
 Node-73             	29.663884       	-2.546745       
 Node-54             	29.664079       	-2.546693       
 Node-55             	29.664238       	-2.546632       
 Node-56             	29.664545       	-2.54646        
 Node-57             	29.664807       	-2.546289       
 Node-58             	29.665066       	-2.546121       
 Node-59             	29.66528        	-2.545952       
 Node-60             	29.665533       	-2.54575        
 Node-61             	29.665808       	-2.545567       
 Node-62             	29.666124       	-2.5454         
 Node-63             	29.666435       	-2.545284       
 Node-85             	29.666708       	-2.545192       
 Node-65             	29.669217       	-2.542431       
 Node-66             	29.669099       	-2.542469       
 Node-67             	29.668973       	-2.542503       
 Node-68             	29.668979       	-2.542564       
 Node-69             	29.668986       	-2.542631       
 Node-75             	29.663927       	-2.546765       
 Node-76             	29.664023       	-2.546748       
 Node-77             	29.664082       	-2.546734       
 Node-79             	29.660762       	-2.548289       
 Node-81             	29.660805       	-2.548222       
 Node-82             	29.660858       	-2.548212       
 Node-86             	29.667007       	-2.545059       
 Node-88             	29.667226       	-2.544918       
 Node-89             	29.667526       	-2.5447         
 Node-90             	29.667823       	-2.544462       
 Node-91             	29.668115       	-2.544181       
 Node-92             	29.668359       	-2.543889       
 Node-93             	29.668532       	-2.543587       
 Node-94             	29.668701       	-2.543219       
 Node-95             	29.668806       	-2.542944       
 Node-96             	29.668866       	-2.542785       
 Node-99             	29.654549       	-2.55718        
 Node-100            	29.65476        	-2.557091       
 Node-101            	29.65489        	-2.557012       
 Node-102            	29.655004       	-2.556872       
 Node-103            	29.655106       	-2.556636       
 Node-104            	29.655211       	-2.55638        
 Node-105            	29.655349       	-2.55614        
 Node-106            	29.655509       	-2.555929       
 Node-107            	29.655681       	-2.555754       
 Node-108            	29.65587        	-2.555558       
 Node-109            	29.656021       	-2.555351       
 Node-110            	29.656233       	-2.555034       
 Node-111            	29.656449       	-2.55471        
 Node-112            	29.6567         	-2.554346       
 Node-113            	29.656913       	-2.554073       
 Node-114            	29.657089       	-2.553832       
 Node-115            	29.657245       	-2.553624       
 Surface water-5596  	29.654182       	-2.557365       
 Spring-5597         	29.654187       	-2.5574         
 Tank-19619          	29.66894        	-2.5426         
 Tank-19620          	29.663895       	-2.546771       
 Tank-19621          	29.668961       	-2.54264        
 Tank-19622          	29.668974       	-2.54267        
 Tank-19623          	29.660756       	-2.548236       

[END]
