[TITLE]
2044 Nyombyi-Maraba WSS in Huye District

[JUNCTIONS]
;ID                  	Elev        	Demand      	Pattern         
 Node-159            	1711.0      	0.0         	                	;
 Node-2              	1711.0      	0.523148148 	                	;
 Node-3              	1638.0      	0.007407407 	                	;
 Node-30             	1638.0      	0.0         	                	;
 Node-5              	1636.0      	0.005555556 	                	;
 Node-6              	1636.0      	0.0         	                	;
 Node-32             	1637.0      	0.0         	                	;
 Node-79             	1647.0      	0.0         	                	;
 Node-9              	1642.0      	0.0         	                	;
 Node-15             	1640.0      	0.0         	                	;
 Node-35             	1638.0      	0.0         	                	;
 Node-12             	1638.0      	0.0         	                	;
 Node-13             	1639.0      	0.0         	                	;
 Node-14             	1640.0      	0.005555556 	                	;
 Node-16             	1640.0      	0.0         	                	;
 Node-17             	1640.0      	0.007407407 	                	;
 Node-18             	1666.0      	0.005555556 	                	;
 Node-19             	1665.0      	0.0         	                	;
 Node-90             	1665.0      	0.0         	                	;
 Node-89             	1663.0      	0.0         	                	;
 Node-22             	1663.0      	0.37037037  	                	;
 Node-81             	1654.0      	0.0         	                	;
 Node-24             	1655.0      	0.0         	                	;
 Node-25             	1654.0      	0.005555556 	                	;
 Node-26             	1639.0      	0.006481481 	                	;
 Node-27             	1639.0      	0.0         	                	;
 Node-28             	1641.0      	0.0         	                	;
 Node-29             	1640.0      	0.0         	                	;
 Node-31             	1639.0      	0.0         	                	;
 Node-33             	1638.0      	0.0         	                	;
 Node-34             	1638.0      	0.0         	                	;
 Node-172            	1702.0      	0.0         	                	;
 Node-37             	1699.0      	0.0         	                	;
 Node-38             	1700.0      	0.00462963  	                	;
 Node-58             	1703.0      	0.0         	                	;
 Node-41             	1702.0      	0.0         	                	;
 Node-42             	1701.0      	0.0         	                	;
 Node-43             	1698.0      	0.0         	                	;
 Node-44             	1694.0      	0.231481481 	                	;
 Node-45             	1697.0      	0.231481481 	                	;
 Node-46             	1695.0      	0.0         	                	;
 Node-47             	1694.0      	0.0         	                	;
 Node-48             	1697.0      	0.0         	                	;
 Node-49             	1698.0      	0.0         	                	;
 Node-100            	1699.0      	0.0         	                	;
 Node-51             	1696.0      	0.0         	                	;
 Node-52             	1695.0      	0.0         	                	;
 Node-53             	1694.0      	0.0         	                	;
 Node-54             	1695.0      	0.0         	                	;
 Node-55             	1696.0      	0.0         	                	;
 Node-56             	1699.0      	0.0         	                	;
 Node-57             	1702.0      	0.0         	                	;
 Node-93             	1680.0      	0.0         	                	;
 Node-61             	1679.0      	0.0         	                	;
 Node-62             	1679.0      	0.0         	                	;
 Node-63             	1721.0      	0.005555556 	                	;
 Node-64             	1721.0      	0.0         	                	;
 Node-132            	1720.0      	0.0         	                	;
 Node-123            	1704.0      	0.0         	                	;
 Node-69             	1705.0      	0.0         	                	;
 Node-68             	1704.0      	0.005555556 	                	;
 Node-70             	1704.0      	0.0         	                	;
 Node-71             	1703.0      	0.0         	                	;
 Node-175            	1703.0      	0.0         	                	;
 Node-73             	1704.0      	0.0         	                	;
 Node-74             	1704.0      	0.007407407 	                	;
 Node-75             	1697.0      	0.007407407 	                	;
 Node-76             	1699.0      	0.0         	                	;
 Node-77             	1699.0      	0.0         	                	;
 Node-78             	1646.0      	0.37037037  	                	;
 Node-80             	1650.0      	0.0         	                	;
 Node-82             	1657.0      	0.0         	                	;
 Node-83             	1661.0      	0.0         	                	;
 Node-84             	1662.0      	0.0         	                	;
 Node-85             	1663.0      	0.0         	                	;
 Node-86             	1663.0      	0.0         	                	;
 Node-87             	1664.0      	0.0         	                	;
 Node-88             	1663.0      	0.0         	                	;
 Node-91             	1670.0      	0.0         	                	;
 Node-92             	1677.0      	0.0         	                	;
 Node-94             	1689.0      	0.0         	                	;
 Node-95             	1694.0      	0.0         	                	;
 Node-96             	1697.0      	0.0         	                	;
 Node-97             	1695.0      	0.0         	                	;
 Node-98             	1695.0      	0.0         	                	;
 Node-99             	1697.0      	0.0         	                	;
 Node-101            	1750.0      	0.185185185 	                	;
 Node-102            	1750.0      	0.0         	                	;
 Node-103            	1754.0      	0.0         	                	;
 Node-104            	1761.0      	0.0         	                	;
 Node-105            	1764.0      	0.0         	                	;
 Node-106            	1766.0      	0.0         	                	;
 Node-107            	1766.0      	0.0         	                	;
 Node-108            	1769.0      	0.0         	                	;
 Node-169            	1773.0      	0.0         	                	;
 Node-110            	1778.0      	0.0         	                	;
 Node-111            	1787.0      	0.0         	                	;
 Node-112            	1794.0      	0.0         	                	;
 Node-113            	1806.0      	0.0         	                	;
 Node-114            	1818.0      	0.0         	                	;
 Node-115            	1838.0      	0.0         	                	;
 Node-116            	1858.0      	0.0         	                	;
 Node-261            	1866.0      	0.0         	                	;
 Node-118            	1874.0      	0.0         	                	;
 Node-119            	1881.0      	0.0         	                	;
 Node-120            	1886.0      	0.0         	                	;
 Node-124            	1707.0      	0.0         	                	;
 Node-125            	1710.0      	0.0         	                	;
 Node-126            	1713.0      	0.0         	                	;
 Node-127            	1714.0      	0.0         	                	;
 Node-128            	1715.0      	0.0         	                	;
 Node-129            	1716.0      	0.0         	                	;
 Node-130            	1718.0      	0.0         	                	;
 Node-131            	1720.0      	0.0         	                	;
 Node-133            	1722.0      	0.0         	                	;
 Node-134            	1723.0      	0.0         	                	;
 Node-135            	1725.0      	0.0         	                	;
 Node-185            	1725.0      	0.0         	                	;
 Node-137            	1725.0      	0.0         	                	;
 Node-182            	1724.0      	0.0         	                	;
 Node-178            	1723.0      	0.0         	                	;
 Node-140            	1723.0      	0.0         	                	;
 Node-141            	1723.0      	0.0         	                	;
 Node-142            	1723.0      	0.0         	                	;
 Node-143            	1723.0      	0.0         	                	;
 Node-144            	1722.0      	0.0         	                	;
 Node-145            	1721.0      	0.0         	                	;
 Node-146            	1720.0      	0.0         	                	;
 Node-181            	1718.0      	0.0         	                	;
 Node-148            	1716.0      	0.0         	                	;
 Node-149            	1714.0      	0.0         	                	;
 Node-212            	1713.0      	0.0         	                	;
 Node-151            	1711.0      	0.0         	                	;
 Node-152            	1710.0      	0.0         	                	;
 Node-153            	1711.0      	0.0         	                	;
 Node-154            	1710.0      	0.0         	                	;
 Node-155            	1711.0      	0.0         	                	;
 Node-156            	1710.0      	0.0         	                	;
 Node-157            	1710.0      	0.0         	                	;
 Node-158            	1711.0      	0.0         	                	;
 Node-160            	1713.0      	0.0         	                	;
 Node-161            	1715.0      	0.0         	                	;
 Node-162            	1717.0      	0.0         	                	;
 Node-163            	1718.0      	0.0         	                	;
 Node-164            	1719.0      	0.0         	                	;
 Node-165            	1721.0      	0.0         	                	;
 Node-166            	1722.0      	0.0         	                	;
 Node-167            	1724.0      	0.0         	                	;
 Node-170            	1773.0      	0.231481481 	                	;
 Node-171            	1701.0      	0.0         	                	;
 Node-173            	1703.0      	0.0         	                	;
 Node-174            	1703.0      	0.0         	                	;
 Node-176            	1723.0      	0.00462963  	                	;
 Node-177            	1723.0      	0.0         	                	;
 Node-179            	1723.0      	0.005555556 	                	;
 Node-180            	1722.0      	0.0         	                	;
 Node-183            	1724.0      	0.0         	                	;
 Node-184            	1724.0      	0.006481481 	                	;
 Node-186            	1725.0      	0.007407407 	                	;
 Node-188            	1726.0      	0.0         	                	;
 Node-189            	1728.0      	0.0         	                	;
 Node-190            	1733.0      	0.0         	                	;
 Node-191            	1740.0      	0.0         	                	;
 Node-192            	1748.0      	0.0         	                	;
 Node-193            	1754.0      	0.0         	                	;
 Node-194            	1757.0      	0.0         	                	;
 Node-195            	1761.0      	0.0         	                	;
 Node-196            	1764.0      	0.0         	                	;
 Node-197            	1768.0      	0.0         	                	;
 Node-198            	1772.0      	0.0         	                	;
 Node-199            	1773.0      	0.0         	                	;
 Node-200            	1773.0      	0.0         	                	;
 Node-201            	1773.0      	0.0         	                	;
 Node-202            	1773.0      	0.0         	                	;
 Node-203            	1773.0      	0.0         	                	;
 Node-204            	1774.0      	0.0         	                	;
 Node-205            	1775.0      	0.0         	                	;
 Node-207            	1719.0      	0.231481481 	                	;
 Node-208            	1721.0      	0.0         	                	;
 Node-209            	1722.0      	0.0         	                	;
 Node-210            	1724.0      	0.0         	                	;
 Node-213            	1710.0      	0.0         	                	;
 Node-214            	1708.0      	0.006481481 	                	;
 Node-235            	1779.0      	0.0         	                	;
 Node-216            	1779.0      	0.006481481 	                	;
 Node-231            	1774.0      	0.0         	                	;
 Node-218            	1772.0      	0.0         	                	;
 Node-219            	1772.0      	0.005555556 	                	;
 Node-226            	1775.0      	0.0         	                	;
 Node-222            	1774.0      	0.0         	                	;
 Node-223            	1773.0      	0.0         	                	;
 Node-224            	1773.0      	0.231481481 	                	;
 Node-227            	1773.0      	0.0         	                	;
 Node-228            	1773.0      	0.0         	                	;
 Node-229            	1773.0      	0.0         	                	;
 Node-230            	1773.0      	0.0         	                	;
 Node-232            	1773.0      	0.0         	                	;
 Node-233            	1775.0      	0.0         	                	;
 Node-234            	1777.0      	0.0         	                	;
 Node-236            	1783.0      	0.0         	                	;
 Node-237            	1789.0      	0.0         	                	;
 Node-238            	1797.0      	0.0         	                	;
 Node-239            	1801.0      	0.0         	                	;
 Node-240            	1804.0      	0.0         	                	;
 Node-241            	1809.0      	0.0         	                	;
 Node-242            	1812.0      	0.0         	                	;
 Node-243            	1815.0      	0.0         	                	;
 Node-244            	1820.0      	0.0         	                	;
 Node-245            	1823.0      	0.0         	                	;
 Node-246            	1824.0      	0.0         	                	;
 Node-247            	1822.0      	0.0         	                	;
 Node-248            	1825.0      	0.0         	                	;
 Node-249            	1829.0      	0.0         	                	;
 Node-250            	1835.0      	0.0         	                	;
 Node-251            	1841.0      	0.0         	                	;
 Node-252            	1847.0      	0.0         	                	;
 Node-253            	1856.0      	0.0         	                	;
 Node-254            	1866.0      	0.0         	                	;
 Node-255            	1870.0      	0.0         	                	;
 Node-256            	1874.0      	0.0         	                	;
 Node-257            	1884.0      	0.0         	                	;
 Node-258            	1892.0      	0.0         	                	;
 Node-264            	1893.0      	0.0         	                	;
 Node-275            	1893.0      	0.0         	                	;
 Node-262            	1859.0      	0.0         	                	;
 Node-265            	1890.0      	0.0         	                	;
 Node-266            	1888.0      	0.0         	                	;
 Node-269            	1905.0      	0.0         	                	;
 Node-270            	1902.0      	0.0         	                	;
 Node-271            	1898.0      	0.0         	                	;
 Node-272            	1896.0      	0.0         	                	;
 Node-273            	1896.0      	0.0         	                	;
 Node-276            	1896.0      	0.0         	                	;
 Node-277            	1896.0      	0.0         	                	;
 Node-278            	1898.0      	0.0         	                	;

[RESERVOIRS]
;ID                  	Head        	Pattern         
 Spring-5363         	1901        	                	;
 Spring-5364         	1910        	                	;

[TANKS]
;ID                  	Elevation   	InitLevel   	MinLevel    	MaxLevel    	Diameter    	MinVol      	VolCurve
 Tank-19006          	1703        	0.75        	0.15000000000000002     	1.5         	5           	5.0         	                	;
 Tank-19007          	1724        	0.75        	0.15000000000000002     	1.5         	5           	5.0         	                	;
 Tank-19008          	1775        	0.75        	0.15000000000000002     	1.5         	5           	0           	                	;
 Tank-19017          	1886        	0.75        	0.15000000000000002     	1.5         	5           	5.0         	                	;

[PIPES]
;ID                  	Node1               	Node2               	Length      	Diameter    	Roughness   	MinorLoss   	Status
 Pipe-110079-0       	Node-159            	Node-2              	5.385       	25          	100         	0           	Open  	;
 Pipe-110057-0       	Node-3              	Node-30             	8.432       	25          	100         	0           	Open  	;
 Pipe-110058-0       	Node-5              	Node-6              	7.442       	25          	100         	0           	Open  	;
 Pipe-110058-1       	Node-6              	Node-32             	12.553      	25          	100         	0           	Open  	;
 Pipe-110059-0       	Node-79             	Node-9              	15.563      	25          	100         	0           	Open  	;
 Pipe-110059-1       	Node-9              	Node-15             	16.308      	25          	100         	0           	Open  	;
 Pipe-110059-2       	Node-15             	Node-35             	9.934       	25          	100         	0           	Open  	;
 Pipe-110059-3       	Node-35             	Node-12             	7.533       	25          	100         	0           	Open  	;
 Pipe-110059-4       	Node-12             	Node-13             	8.357       	25          	100         	0           	Open  	;
 Pipe-110059-5       	Node-13             	Node-14             	6.878       	25          	100         	0           	Open  	;
 Pipe-110060-0       	Node-15             	Node-16             	5.708       	25          	100         	0           	Open  	;
 Pipe-110060-1       	Node-16             	Node-17             	9.927       	25          	100         	0           	Open  	;
 Pipe-110061-0       	Node-18             	Node-19             	9.657       	25          	100         	0           	Open  	;
 Pipe-110061-1       	Node-19             	Node-90             	16.884      	25          	100         	0           	Open  	;
 Pipe-110062-0       	Node-89             	Node-22             	2.355       	25          	100         	0           	Open  	;
 Pipe-110063-0       	Node-81             	Node-24             	4.338       	25          	100         	0           	Open  	;
 Pipe-110063-1       	Node-24             	Node-25             	6.882       	25          	100         	0           	Open  	;
 Pipe-110064-0       	Node-26             	Node-27             	7.181       	25          	100         	0           	Open  	;
 Pipe-110064-1       	Node-27             	Node-28             	8.258       	25          	100         	0           	Open  	;
 Pipe-110064-2       	Node-28             	Node-29             	16.813      	25          	100         	0           	Open  	;
 Pipe-110064-3       	Node-29             	Node-30             	11.74       	25          	100         	0           	Open  	;
 Pipe-110064-4       	Node-30             	Node-31             	12.524      	25          	100         	0           	Open  	;
 Pipe-110064-5       	Node-31             	Node-32             	14.172      	25          	100         	0           	Open  	;
 Pipe-110064-6       	Node-32             	Node-33             	12.065      	25          	100         	0           	Open  	;
 Pipe-110064-7       	Node-33             	Node-34             	5.595       	25          	100         	0           	Open  	;
 Pipe-110064-8       	Node-34             	Node-35             	5.215       	25          	100         	0           	Open  	;
 Pipe-110065-0       	Node-172            	Node-37             	17.079      	25          	100         	0           	Open  	;
 Pipe-110065-1       	Node-37             	Node-38             	5.393       	25          	100         	0           	Open  	;
 Pipe-110066-0       	Tank-19006          	Node-58             	3.879       	32          	100         	0           	Open  	;
 Pipe-110066-1       	Node-58             	Node-41             	16.688      	32          	100         	0           	Open  	;
 Pipe-110066-2       	Node-41             	Node-42             	34.284      	32          	100         	0           	Open  	;
 Pipe-110066-3       	Node-42             	Node-43             	30.787      	32          	100         	0           	Open  	;
 Pipe-110066-4       	Node-43             	Node-44             	32.28       	32          	100         	0           	Open  	;
 Pipe-110067-0       	Node-45             	Node-46             	24.94       	32          	100         	0           	Open  	;
 Pipe-110067-1       	Node-46             	Node-47             	36.366      	32          	100         	0           	Open  	;
 Pipe-110067-2       	Node-47             	Node-48             	27.634      	32          	100         	0           	Open  	;
 Pipe-110067-3       	Node-48             	Node-49             	38.561      	32          	100         	0           	Open  	;
 Pipe-110067-4       	Node-49             	Node-100            	30.78       	32          	100         	0           	Open  	;
 Pipe-110067-5       	Node-100            	Node-51             	44.436      	32          	100         	0           	Open  	;
 Pipe-110067-6       	Node-51             	Node-52             	47.982      	32          	100         	0           	Open  	;
 Pipe-110067-7       	Node-52             	Node-53             	30.854      	32          	100         	0           	Open  	;
 Pipe-110067-8       	Node-53             	Node-54             	6.781       	32          	100         	0           	Open  	;
 Pipe-110067-9       	Node-54             	Node-55             	6.94        	32          	100         	0           	Open  	;
 Pipe-110067-10      	Node-55             	Node-56             	26.984      	32          	100         	0           	Open  	;
 Pipe-110067-11      	Node-56             	Node-57             	32.117      	32          	100         	0           	Open  	;
 Pipe-110067-12      	Node-57             	Node-58             	14.847      	32          	100         	0           	Open  	;
 Pipe-110068-0       	Node-93             	Node-61             	15.999      	25          	100         	0           	Open  	;
 Pipe-110068-1       	Node-61             	Node-62             	17.951      	25          	100         	0           	Open  	;
 Pipe-110069-0       	Node-63             	Node-64             	9.28        	25          	100         	0           	Open  	;
 Pipe-110069-1       	Node-64             	Node-132            	18.547      	25          	100         	0           	Open  	;
 Pipe-110070-0       	Node-123            	Node-69             	12.062      	25          	100         	0           	Open  	;
 Pipe-110070-1       	Node-69             	Node-68             	10.349      	25          	100         	0           	Open  	;
 Pipe-110071-0       	Node-69             	Node-70             	14.609      	25          	100         	0           	Open  	;
 Pipe-110071-1       	Node-70             	Node-71             	16.252      	25          	100         	0           	Open  	;
 Pipe-110071-2       	Node-71             	Node-175            	8.496       	25          	100         	0           	Open  	;
 Pipe-110071-3       	Node-175            	Node-73             	9.435       	25          	100         	0           	Open  	;
 Pipe-110071-4       	Node-73             	Node-74             	11.971      	25          	100         	0           	Open  	;
 Pipe-110072-0       	Node-75             	Node-76             	13.149      	25          	100         	0           	Open  	;
 Pipe-110072-1       	Node-76             	Node-77             	19.634      	25          	100         	0           	Open  	;
 Pipe-110072-2       	Node-77             	Node-171            	21.55       	25          	100         	0           	Open  	;
 Pipe-110072-3       	Node-171            	Node-172            	14.836      	25          	100         	0           	Open  	;
 Pipe-110072-4       	Node-172            	Node-173            	16.392      	25          	100         	0           	Open  	;
 Pipe-110072-5       	Node-173            	Node-174            	10.696      	25          	100         	0           	Open  	;
 Pipe-110072-6       	Node-174            	Node-175            	7.022       	25          	100         	0           	Open  	;
 Pipe-110073-0       	Node-176            	Node-177            	6.697       	25          	100         	0           	Open  	;
 Pipe-110073-1       	Node-177            	Node-178            	10.684      	25          	100         	0           	Open  	;
 Pipe-110074-0       	Node-179            	Node-180            	11.967      	25          	100         	0           	Open  	;
 Pipe-110074-1       	Node-180            	Node-181            	28.211      	25          	100         	0           	Open  	;
 Pipe-110075-0       	Node-182            	Node-183            	14.529      	25          	100         	0           	Open  	;
 Pipe-110075-1       	Node-183            	Node-184            	8.329       	25          	100         	0           	Open  	;
 Pipe-110076-0       	Node-185            	Node-186            	10.741      	25          	100         	0           	Open  	;
 Pipe-110077-0       	Tank-19007          	Node-188            	10.263      	32          	100         	0           	Open  	;
 Pipe-110077-1       	Node-188            	Node-189            	18.407      	32          	100         	0           	Open  	;
 Pipe-110077-2       	Node-189            	Node-190            	47.528      	32          	100         	0           	Open  	;
 Pipe-110077-3       	Node-190            	Node-191            	54.564      	32          	100         	0           	Open  	;
 Pipe-110077-4       	Node-191            	Node-192            	61.851      	32          	100         	0           	Open  	;
 Pipe-110077-5       	Node-192            	Node-193            	60.307      	32          	100         	0           	Open  	;
 Pipe-110077-6       	Node-193            	Node-194            	44.11       	32          	100         	0           	Open  	;
 Pipe-110077-7       	Node-194            	Node-195            	53.599      	32          	100         	0           	Open  	;
 Pipe-110077-8       	Node-195            	Node-196            	32.373      	32          	100         	0           	Open  	;
 Pipe-110077-9       	Node-196            	Node-197            	32.478      	32          	100         	0           	Open  	;
 Pipe-110077-10      	Node-197            	Node-198            	29.491      	32          	100         	0           	Open  	;
 Pipe-110077-11      	Node-198            	Node-199            	21.159      	32          	100         	0           	Open  	;
 Pipe-110077-12      	Node-199            	Node-200            	8.139       	32          	100         	0           	Open  	;
 Pipe-110077-13      	Node-200            	Node-201            	3.965       	32          	100         	0           	Open  	;
 Pipe-110077-14      	Node-201            	Node-202            	3.762       	32          	100         	0           	Open  	;
 Pipe-110077-15      	Node-202            	Node-203            	3.904       	32          	100         	0           	Open  	;
 Pipe-110077-16      	Node-203            	Node-204            	10.855      	32          	100         	0           	Open  	;
 Pipe-110077-17      	Node-204            	Node-205            	9.882       	32          	100         	0           	Open  	;
 Pipe-110077-18      	Node-205            	Tank-19008          	2.353       	32          	100         	0           	Open  	;
 Pipe-110078-0       	Node-207            	Node-208            	14.367      	32          	100         	0           	Open  	;
 Pipe-110078-1       	Node-208            	Node-209            	25.517      	32          	100         	0           	Open  	;
 Pipe-110078-2       	Node-209            	Node-210            	11.82       	32          	100         	0           	Open  	;
 Pipe-110078-3       	Node-210            	Tank-19007          	2.593       	32          	100         	0           	Open  	;
 Pipe-110080-0       	Node-212            	Node-213            	13.24       	25          	100         	0           	Open  	;
 Pipe-110080-1       	Node-213            	Node-214            	8.319       	25          	100         	0           	Open  	;
 Pipe-110081-0       	Node-235            	Node-216            	6.688       	25          	100         	0           	Open  	;
 Pipe-110082-0       	Node-231            	Node-218            	19.076      	25          	100         	0           	Open  	;
 Pipe-110082-1       	Node-218            	Node-219            	6.884       	25          	100         	0           	Open  	;
 Pipe-110083-0       	Tank-19008          	Node-226            	2.353       	25          	100         	0           	Open  	;
 Pipe-110083-1       	Node-226            	Node-222            	9.876       	25          	100         	0           	Open  	;
 Pipe-110083-2       	Node-222            	Node-223            	10.882      	25          	100         	0           	Open  	;
 Pipe-110083-3       	Node-223            	Node-224            	13.58       	25          	100         	0           	Open  	;
 Pipe-110084-0       	Tank-19008          	Node-226            	2.353       	32          	100         	0           	Open  	;
 Pipe-110084-2       	Node-227            	Node-228            	22.88       	32          	100         	0           	Open  	;