[TITLE]
2045 Kabyira-Rugarama WSS in Huye District

[JUNCTIONS]
;ID                  	Elev        	Demand      	Pattern         
 Node-604            	1663.0      	0.0         	                	;
 Node-2              	1663.0      	0.0         	                	;
 Node-3              	1661.0      	0.007407407 	                	;
 Node-262            	1659.0      	0.0         	                	;
 Node-5              	1658.0      	0.003703704 	                	;
 Node-584            	1637.0      	0.0         	                	;
 Node-7              	1636.0      	0.00462963  	                	;
 Node-545            	1637.0      	0.0         	                	;
 Node-9              	1637.0      	0.000925926 	                	;
 Node-464            	1655.0      	0.0         	                	;
 Node-11             	1656.0      	0.005555556 	                	;
 Node-546            	1637.0      	0.0         	                	;
 Node-13             	1638.0      	0.003703704 	                	;
 Node-14             	1668.0      	0.002777778 	                	;
 Node-15             	1666.0      	0.0         	                	;
 Node-611            	1663.0      	0.0         	                	;
 Node-657            	1634.0      	0.0         	                	;
 Node-18             	1633.0      	0.00462963  	                	;
 Node-273            	1647.0      	0.0         	                	;
 Node-20             	1649.0      	0.0         	                	;
 Node-593            	1650.0      	0.0         	                	;
 Node-578            	1651.0      	0.0         	                	;
 Node-574            	1655.0      	0.0         	                	;
 Node-25             	1659.0      	0.0         	                	;
 Node-26             	1658.0      	0.005555556 	                	;
 Node-59             	1651.0      	0.0         	                	;
 Node-28             	1653.0      	0.0         	                	;
 Node-31             	1653.0      	0.0         	                	;
 Node-30             	1653.0      	0.00462963  	                	;
 Node-32             	1653.0      	0.0         	                	;
 Node-33             	1653.0      	0.003703704 	                	;
 Node-61             	1648.0      	0.0         	                	;
 Node-37             	1650.0      	0.0         	                	;
 Node-36             	1649.0      	0.001851852 	                	;
 Node-38             	1651.0      	0.0         	                	;
 Node-39             	1651.0      	0.0         	                	;
 Node-40             	1652.0      	0.005555556 	                	;
 Node-41             	1662.0      	0.002777778 	                	;
 Node-42             	1662.0      	0.0         	                	;
 Node-43             	1662.0      	0.0         	                	;
 Node-607            	1665.0      	0.0         	                	;
 Node-45             	1668.0      	0.003703704 	                	;
 Node-46             	1666.0      	0.0         	                	;
 Node-609            	1664.0      	0.0         	                	;
 Node-290            	1646.0      	0.0         	                	;
 Node-49             	1643.0      	0.0         	                	;
 Node-50             	1643.0      	0.002777778 	                	;
 Node-51             	1651.0      	0.007407407 	                	;
 Node-52             	1651.0      	0.0         	                	;
 Node-53             	1652.0      	0.0         	                	;
 Node-54             	1654.0      	0.0         	                	;
 Node-55             	1655.0      	0.0         	                	;
 Node-643            	1655.0      	0.0         	                	;
 Node-57             	1655.0      	0.0         	                	;
 Node-636            	1655.0      	0.0         	                	;
 Node-486            	1650.0      	0.0         	                	;
 Node-635            	1648.0      	0.0         	                	;
 Node-276            	1645.0      	0.0         	                	;
 Node-292            	1645.0      	0.0         	                	;
 Node-65             	1644.0      	0.0         	                	;
 Node-66             	1643.0      	0.007407407 	                	;
 Node-67             	1666.0      	0.003703704 	                	;
 Node-68             	1664.0      	0.0         	                	;
 Node-612            	1664.0      	0.0         	                	;
 Node-70             	1667.0      	0.003703704 	                	;
 Node-71             	1666.0      	0.0         	                	;
 Node-605            	1663.0      	0.0         	                	;
 Node-73             	1655.0      	0.00462963  	                	;
 Node-74             	1653.0      	0.0         	                	;
 Node-325            	1653.0      	0.0         	                	;
 Node-687            	1654.0      	0.0         	                	;
 Node-77             	1654.0      	0.006481481 	                	;
 Node-291            	1645.0      	0.0         	                	;
 Node-79             	1644.0      	0.0         	                	;
 Node-80             	1635.0      	0.001851852 	                	;
 Node-81             	1636.0      	0.0         	                	;
 Node-548            	1636.0      	0.0         	                	;
 Node-83             	1633.0      	0.000925926 	                	;
 Node-84             	1633.0      	0.0         	                	;
 Node-85             	1633.0      	0.0         	                	;
 Node-86             	1633.0      	0.0         	                	;
 Node-87             	1636.0      	0.0         	                	;
 Node-88             	1636.0      	0.0         	                	;
 Node-89             	1636.0      	0.0         	                	;
 Node-90             	1635.0      	0.0         	                	;
 Node-91             	1637.0      	0.0         	                	;
 Node-685            	1638.0      	0.0         	                	;
 Node-683            	1639.0      	0.0         	                	;
 Node-94             	1639.0      	0.0         	                	;
 Node-95             	1642.0      	0.006481481 	                	;
 Node-96             	1640.0      	0.00462963  	                	;
 Node-664            	1641.0      	0.0         	                	;
 Node-666            	1641.0      	0.0         	                	;
 Node-99             	1645.0      	0.001851852 	                	;
 Node-100            	1639.0      	0.002777778 	                	;
 Node-101            	1639.0      	0.0         	                	;
 Node-677            	1641.0      	0.0         	                	;
 Node-103            	1644.0      	0.003703704 	                	;
 Node-104            	1645.0      	0.0         	                	;
 Node-669            	1646.0      	0.0         	                	;
 Node-106            	1638.0      	0.001851852 	                	;
 Node-107            	1639.0      	0.0         	                	;
 Node-678            	1641.0      	0.0         	                	;
 Node-109            	1639.0      	0.00462963  	                	;
 Node-110            	1640.0      	0.0         	                	;
 Node-665            	1641.0      	0.0         	                	;
 Node-351            	1675.0      	0.0         	                	;
 Node-113            	1677.0      	0.0         	                	;
 Node-114            	1677.0      	0.005555556 	                	;
 Node-115            	1673.0      	0.0         	                	;
 Node-116            	1671.0      	0.0         	                	;
 Node-117            	1669.0      	0.0         	                	;
 Node-341            	1667.0      	0.0         	                	;
 Node-119            	1672.0      	0.008333333 	                	;
 Node-120            	1671.0      	0.0         	                	;
 Node-345            	1671.0      	0.0         	                	;
 Node-122            	1633.0      	0.001851852 	                	;
 Node-123            	1633.0      	0.0         	                	;
 Node-600            	1665.0      	0.0         	                	;
 Node-515            	1662.0      	0.0         	                	;
 Node-127            	1662.0      	0.003703704 	                	;
 Node-354            	1679.0      	0.0         	                	;
 Node-129            	1678.0      	0.0         	                	;
 Node-130            	1675.0      	0.0         	                	;
 Node-131            	1672.0      	0.0         	                	;
 Node-132            	1672.0      	0.006481481 	                	;
 Node-349            	1674.0      	0.0         	                	;
 Node-134            	1675.0      	0.0         	                	;
 Node-135            	1676.0      	0.006481481 	                	;
 Node-350            	1675.0      	0.0         	                	;
 Node-137            	1675.0      	0.0         	                	;
 Node-138            	1676.0      	0.002777778 	                	;
 Node-139            	1669.0      	0.005555556 	                	;
 Node-140            	1669.0      	0.0         	                	;
 Node-141            	1667.0      	0.0         	                	;
 Node-142            	1666.0      	0.0         	                	;
 Node-606            	1663.0      	0.0         	                	;
 Node-321            	1651.0      	0.0         	                	;
 Node-145            	1653.0      	0.0         	                	;
 Node-424            	1654.0      	0.0         	                	;
 Node-147            	1654.0      	0.005555556 	                	;
 Node-148            	1654.0      	0.005555556 	                	;
 Node-149            	1654.0      	0.0         	                	;
 Node-326            	1652.0      	0.0         	                	;
 Node-508            	1659.0      	0.0         	                	;
 Node-152            	1659.0      	0.0         	                	;
 Node-153            	1659.0      	0.00462963  	                	;
 Node-603            	1665.0      	0.0         	                	;
 Node-155            	1663.0      	0.0         	                	;
 Node-156            	1662.0      	0.0         	                	;
 Node-157            	1663.0      	0.001851852 	                	;
 Node-333            	1662.0      	0.0         	                	;
 Node-159            	1660.0      	0.0         	                	;
 Node-160            	1660.0      	0.0         	                	;
 Node-161            	1658.0      	0.0         	                	;
 Node-162            	1660.0      	0.0         	                	;
 Node-163            	1658.0      	0.001851852 	                	;
 Node-164            	1657.0      	0.00462963  	                	;
 Node-165            	1657.0      	0.0         	                	;
 Node-166            	1657.0      	0.0         	                	;
 Node-331            	1655.0      	0.0         	                	;
 Node-168            	1667.0      	0.00462963  	                	;
 Node-169            	1666.0      	0.0         	                	;
 Node-602            	1664.0      	0.0         	                	;
 Node-285            	1645.0      	0.0         	                	;
 Node-172            	1643.0      	0.023148148 	                	;
 Node-598            	1665.0      	0.0         	                	;
 Node-174            	1664.0      	0.0         	                	;
 Node-177            	1662.0      	0.0         	                	;
 Node-176            	1662.0      	0.003703704 	                	;
 Node-178            	1660.0      	0.0         	                	;
 Node-179            	1659.0      	0.002777778 	                	;
 Node-180            	1669.0      	0.0         	                	;
 Node-181            	1667.0      	0.0         	                	;
 Node-601            	1665.0      	0.0         	                	;
 Node-231            	1651.0      	0.0         	                	;
 Node-184            	1653.0      	0.0         	                	;
 Node-185            	1653.0      	0.0         	                	;
 Node-186            	1655.0      	0.002777778 	                	;
 Node-187            	1632.0      	0.0         	                	;
 Node-188            	1631.0      	0.0         	                	;
 Node-246            	1629.0      	0.0         	                	;
 Node-277            	1646.0      	0.0         	                	;
 Node-191            	1644.0      	0.0         	                	;
 Node-192            	1644.0      	0.005555556 	                	;
 Node-279            	1647.0      	0.0         	                	;
 Node-194            	1645.0      	0.0         	                	;
 Node-195            	1645.0      	0.002777778 	                	;
 Node-258            	1641.0      	0.0         	                	;
 Node-215            	1638.0      	0.0         	                	;
 Node-203            	1636.0      	0.0         	                	;
 Node-199            	1634.0      	0.0         	                	;
 Node-200            	1629.0      	0.0         	                	;
 Node-201            	1626.0      	0.0         	                	;
 Node-254            	1626.0      	0.0         	                	;
 Node-204            	1636.0      	0.0         	                	;
 Node-205            	1639.0      	0.0         	                	;
 Node-207            	1639.0      	0.023148148 	                	;
 Node-208            	1642.0      	0.013888889 	                	;
 Node-209            	1644.0      	0.0         	                	;
 Node-210            	1644.0      	0.0         	                	;
 Node-211            	1645.0      	0.0         	                	;
 Node-212            	1645.0      	0.0         	                	;
 Node-216            	1642.0      	0.0         	                	;
 Node-214            	1640.0      	0.0         	                	;
 Node-217            	1641.0      	0.023148148 	                	;
 Node-218            	1648.0      	0.555555556 	                	;
 Node-673            	1650.0      	0.0         	                	;
 Node-220            	1654.0      	0.0         	                	;
 Node-221            	1657.0      	0.0         	                	;
 Node-222            	1659.0      	0.0         	                	;
 Node-225            	1660.0      	0.0         	                	;
 Node-226            	1658.0      	0.0         	                	;
 Node-227            	1657.0      	0.0         	                	;
 Node-228            	1656.0      	0.0         	                	;
 Node-229            	1655.0      	0.0         	                	;
 Node-230            	1653.0      	0.0         	                	;
 Node-232            	1649.0      	0.0         	                	;
 Node-233            	1646.0      	0.0         	                	;
 Node-234            	1642.0      	0.0         	                	;
 Node-235            	1638.0      	0.0         	                	;
 Node-236            	1629.0      	0.0         	                	;
 Node-237            	1625.0      	0.0         	                	;
 Node-238            	1619.0      	0.0         	                	;
 Node-240            	1618.0      	0.0         	                	;
 Node-241            	1620.0      	0.0         	                	;
 Node-242            	1620.0      	0.0         	                	;
 Node-243            	1620.0      	0.0         	                	;
 Node-244            	1620.0      	0.0         	                	;
 Node-245            	1624.0      	0.0         	                	;
 Node-247            	1630.0      	0.0         	                	;
 Node-248            	1632.0      	0.0         	                	;
 Node-249            	1634.0      	0.0         	                	;
 Node-250            	1634.0      	0.0         	                	;
 Node-251            	1633.0      	0.0         	                	;
 Node-252            	1629.0      	0.0         	                	;
 Node-253            	1628.0      	0.0         	                	;
 Node-314            	1646.0      	0.0         	                	;
 Node-256            	1644.0      	0.0         	                	;
 Node-257            	1643.0      	0.0         	                	;
 Node-259            	1661.0      	0.002777778 	                	;
 Node-433            	1660.0      	0.0         	                	;
 Node-261            	1660.0      	0.0         	                	;
 Node-267            	1656.0      	0.0         	                	;
 Node-264            	1654.0      	0.0         	                	;
 Node-483            	1650.0      	0.0         	                	;
 Node-318            	1648.0      	0.0         	                	;
 Node-268            	1657.0      	0.0         	                	;
 Node-269            	1656.0      	0.008333333 	                	;
 Node-644            	1646.0      	0.0         	                	;
 Node-272            	1646.0      	0.0         	                	;
 Node-638            	1648.0      	0.0         	                	;
 Node-275            	1647.0      	0.0         	                	;
 Node-278            	1647.0      	0.0         	                	;
 Node-280            	1646.0      	0.0         	                	;
 Node-281            	1645.0      	0.0         	                	;
 Node-282            	1644.0      	0.0         	                	;
 Node-530            	1644.0      	0.0         	                	;
 Node-284            	1644.0      	0.0         	                	;
 Node-409            	1644.0      	0.0         	                	;
 Node-580            	1644.0      	0.0         	                	;
 Node-288            	1645.0      	0.0         	                	;
 Node-289            	1644.0      	0.0         	                	;
 Node-293            	1644.0      	0.0         	                	;
 Node-294            	1644.0      	0.0         	                	;
 Node-295            	1646.0      	0.0         	                	;
 Node-562            	1644.0      	0.0         	                	;
 Node-297            	1641.0      	0.0         	                	;
 Node-298            	1642.0      	0.0         	                	;
 Node-299            	1639.0      	0.0         	                	;
 Node-300            	1638.0      	0.0         	                	;
 Node-301            	1635.0      	0.0         	                	;
 Node-302            	1631.0      	0.0         	                	;
 Node-303            	1628.0      	0.0         	                	;
 Node-304            	1627.0      	0.0         	                	;
 Node-305            	1627.0      	0.0         	                	;
 Node-306            	1627.0      	0.0         	                	;
 Node-308            	1628.0      	0.0         	                	;
 Node-309            	1629.0      	0.0         	                	;
 Node-310            	1631.0      	0.0         	                	;
 Node-311            	1632.0      	0.0         	                	;
 Node-312            	1632.0      	0.0         	                	;
 Node-313            	1631.0      	0.055555556 	                	;
 Node-315            	1646.0      	0.0         	                	;
 Node-316            	1646.0      	0.0         	                	;
 Node-648            	1647.0      	0.0         	                	;
 Node-319            	1650.0      	0.0         	                	;
 Node-653            	1652.0      	0.0         	                	;
 Node-322            	1652.0      	0.0         	                	;
 Node-323            	1652.0      	0.0         	                	;
 Node-688            	1652.0      	0.0         	                	;
 Node-327            	1653.0      	0.0         	                	;
 Node-328            	1653.0      	0.0         	                	;
 Node-329            	1653.0      	0.0         	                	;
 Node-330            	1653.0      	0.0         	                	;
 Node-408            	1660.0      	0.0         	                	;
 Node-334            	1664.0      	0.0         	                	;
 Node-596            	1664.0      	0.0         	                	;
 Node-336            	1665.0      	0.0         	                	;
 Node-337            	1664.0      	0.0         	                	;
 Node-338            	1665.0      	0.0         	                	;
 Node-339            	1667.0      	0.0         	                	;
 Node-340            	1666.0      	0.0         	                	;
 Node-342            	1667.0      	0.0         	                	;
 Node-343            	1668.0      	0.0         	                	;
 Node-344            	1668.0      	0.0         	                	;
 Node-346            	1671.0      	0.0         	                	;
 Node-347            	1671.0      	0.0         	                	;
 Node-348            	1671.0      	0.0         	                	;
 Node-353            	1676.0      	0.0         	                	;
 Node-355            	1682.0      	0.0         	                	;
 Node-356            	1684.0      	0.0         	                	;
 Node-357            	1687.0      	0.0         	                	;
 Node-358            	1687.0      	0.0         	                	;
 Node-361            	1711.0      	0.0         	                	;
 Node-362            	1710.0      	0.0         	                	;
 Node-363            	1709.0      	0.0         	                	;
 Node-364            	1709.0      	0.0         	                	;
 Node-423            	1709.0      	0.0         	                	;
 Node-367            	1709.0      	0.0         	                	;
 Node-368            	1708.0      	0.0         	                	;
 Node-369            	1708.0      	0.0         	                	;
 Node-370            	1706.0      	0.0         	                	;
 Node-371            	1705.0      	0.0         	                	;
 Node-372            	1704.0      	0.0         	                	;
 Node-373            	1705.0      	0.0         	                	;
 Node-374            	1703.0      	0.0         	                	;
 Node-375            	1703.0      	0.0         	                	;
 Node-376            	1703.0      	0.0         	                	;
 Node-377            	1702.0      	0.0         	                	;
 Node-378            	1701.0      	0.0         	                	;
 Node-379            	1704.0      	0.0         	                	;
 Node-380            	1696.0      	0.0         	                	;
 Node-381            	1700.0      	0.0         	                	;
 Node-382            	1699.0      	0.0         	                	;
 Node-383            	1693.0      	0.0         	                	;
 Node-384            	1693.0      	0.0         	                	;
 Node-385            	1696.0      	0.0         	                	;
 Node-386            	1697.0      	0.0         	                	;
 Node-387            	1696.0      	0.0         	                	;
 Node-388            	1695.0      	0.0         	                	;
 Node-389            	1696.0      	0.0         	                	;
 Node-390            	1695.0      	0.0         	                	;
 Node-391            	1697.0      	0.0         	                	;
 Node-392            	1695.0      	0.0         	                	;
 Node-393            	1695.0      	0.0         	                	;
 Node-394            	1695.0      	0.0         	                	;
 Node-395            	1694.0      	0.0         	                	;
 Node-396            	1691.0      	0.0         	                	;
 Node-397            	1689.0      	0.0         	                	;
 Node-398            	1688.0      	0.0         	                	;
 Node-399            	1688.0      	0.0         	                	;
 Node-400            	1688.0      	0.0         	                	;
 Node-401            	1688.0      	0.0         	                	;
 Node-402            	1687.0      	0.0         	                	;
 Node-403            	1687.0      	0.0         	                	;
 Node-404            	1687.0      	0.0         	                	;
 Node-406            	1653.0      	0.555555556 	                	;
 Node-407            	1655.0      	0.0         	                	;
 Node-410            	1642.0      	0.555555556 	                	;
 Node-412            	1709.0      	0.0         	                	;
 Node-413            	1708.0      	0.0         	                	;
 Node-414            	1708.0      	0.0         	                	;
 Node-415            	1706.0      	0.0         	                	;
 Node-416            	1705.0      	0.0         	                	;
 Node-417            	1702.0      	0.074074074 	                	;
 Node-419            	1711.0      	0.0         	                	;
 Node-420            	1710.0      	0.0         	                	;
 Node-421            	1709.0      	0.0         	                	;
 Node-422            	1709.0      	0.0         	                	;
 Node-425            	1654.0      	0.0         	                	;
 Node-426            	1656.0      	0.0         	                	;
 Node-427            	1659.0      	0.0         	                	;
 Node-430            	1659.0      	0.0         	                	;
 Node-429            	1659.0      	0.003703704 	                	;
 Node-431            	1660.0      	0.0         	                	;
 Node-432            	1659.0      	0.005555556 	                	;
 Node-434            	1660.0      	0.003703704 	                	;
 Node-435            	1667.0      	0.000925926 	                	;
 Node-436            	1667.0      	0.0         	                	;
 Node-437            	1665.0      	0.0         	                	;
 Node-615            	1664.0      	0.0         	                	;
 Node-439            	1671.0      	0.005555556 	                	;
 Node-440            	1670.0      	0.0         	                	;
 Node-441            	1667.0      	0.0         	                	;
 Node-442            	1665.0      	0.0         	                	;
 Node-617            	1663.0      	0.0         	                	;
 Node-650            	1651.0      	0.0         	                	;
 Node-448            	1654.0      	0.0         	                	;
 Node-446            	1655.0      	0.0         	                	;
 Node-447            	1656.0      	0.006481481 	                	;
 Node-449            	1654.0      	0.00462963  	                	;
 Node-488            	1653.0      	0.0         	                	;
 Node-457            	1653.0      	0.0         	                	;
 Node-452            	1655.0      	0.0         	                	;
 Node-453            	1657.0      	0.003703704 	                	;
 Node-454            	1660.0      	0.002777778 	                	;
 Node-455            	1662.0      	0.0         	                	;
 Node-456            	1658.0      	0.0         	                	;
 Node-458            	1661.0      	0.005555556 	                	;
 Node-459            	1661.0      	0.0         	                	;
 Node-460            	1658.0      	0.0         	                	;
 Node-461            	1656.0      	0.0         	                	;
 Node-465            	1656.0      	0.0         	                	;
 Node-463            	1656.0      	0.0         	                	;
 Node-466            	1654.0      	0.022222222 	                	;
 Node-495            	1667.0      	0.0         	                	;
 Node-468            	1667.0      	0.0         	                	;
 Node-469            	1667.0      	0.001851852 	                	;
 Node-497            	1669.0      	0.0         	                	;
 Node-476            	1670.0      	0.0         	                	;
 Node-472            	1672.0      	0.009259259 	                	;
 Node-496            	1668.0      	0.0         	                	;
 Node-474            	1668.0      	0.0         	                	;
 Node-475            	1668.0      	0.001851852 	                	;
 Node-477            	1670.0      	0.002777778 	                	;
 Node-513            	1661.0      	0.0         	                	;
 Node-479            	1660.0      	0.0         	                	;
 Node-480            	1659.0      	0.0         	                	;
 Node-481            	1658.0      	0.0         	                	;
 Node-482            	1658.0      	0.002777778 	                	;
 Node-484            	1653.0      	0.0         	                	;
 Node-485            	1654.0      	0.00462963  	                	;
 Node-487            	1651.0      	0.0         	                	;
 Node-489            	1654.0      	0.0         	                	;
 Node-490            	1655.0      	0.005555556 	                	;
 Node-621            	1663.0      	0.0         	                	;
 Node-492            	1665.0      	0.0         	                	;
 Node-493            	1665.0      	0.0         	                	;
 Node-494            	1665.0      	0.0         	                	;
 Node-498            	1673.0      	0.0         	                	;
 Node-499            	1673.0      	0.0         	                	;
 Node-500            	1673.0      	0.0         	                	;
 Node-501            	1673.0      	0.0         	                	;
 Node-502            	1673.0      	0.0         	                	;
 Node-503            	1675.0      	0.005555556 	                	;
 Node-608            	1663.0      	0.0         	                	;
 Node-505            	1661.0      	0.0         	                	;
 Node-506            	1661.0      	0.0         	                	;
 Node-507            	1659.0      	0.0         	                	;
 Node-616            	1662.0      	0.0         	                	;
 Node-510            	1661.0      	0.003703704 	                	;
 Node-614            	1663.0      	0.0         	                	;
 Node-512            	1661.0      	0.0         	                	;
 Node-514            	1661.0      	0.0         	                	;