[TITLE]
2046 Agahama WSS in Huye District

[JUNCTIONS]
;ID                  	Elev        	Demand      	Pattern         
 Node-1              	1639.0      	0.023148148 	                	;
 Node-2              	1639.0      	0.0         	                	;
 Node-61             	1640.0      	0.0         	                	;
 Node-4              	1635.0      	0.023148148 	                	;
 Node-5              	1635.0      	0.0         	                	;
 Node-6              	1635.0      	0.0         	                	;
 Node-7              	1637.0      	0.0         	                	;
 Node-55             	1639.0      	0.0         	                	;
 Node-54             	1637.0      	0.0         	                	;
 Node-10             	1637.0      	0.277777778 	                	;
 Node-51             	1632.0      	0.0         	                	;
 Node-12             	1632.0      	0.277777778 	                	;
 Node-216            	1737.0      	0.0         	                	;
 Node-14             	1735.0      	0.0         	                	;
 Node-15             	1730.0      	0.0         	                	;
 Node-16             	1724.0      	0.0         	                	;
 Node-17             	1721.0      	0.0         	                	;
 Node-18             	1716.0      	0.0         	                	;
 Node-19             	1711.0      	0.0         	                	;
 Node-121            	1708.0      	0.0         	                	;
 Node-21             	1708.0      	0.0         	                	;
 Node-22             	1707.0      	0.0         	                	;
 Node-23             	1707.0      	0.0         	                	;
 Node-24             	1709.0      	0.0         	                	;
 Node-25             	1709.0      	0.0         	                	;
 Node-26             	1709.0      	0.0         	                	;
 Node-27             	1709.0      	0.0         	                	;
 Node-28             	1707.0      	0.0         	                	;
 Node-29             	1706.0      	0.0         	                	;
 Node-30             	1705.0      	0.0         	                	;
 Node-31             	1703.0      	0.0         	                	;
 Node-32             	1705.0      	0.0         	                	;
 Node-33             	1705.0      	0.0         	                	;
 Node-34             	1703.0      	0.0         	                	;
 Node-35             	1702.0      	0.0         	                	;
 Node-36             	1703.0      	0.0         	                	;
 Node-37             	1697.0      	0.0         	                	;
 Node-38             	1693.0      	0.0         	                	;
 Node-39             	1685.0      	0.0         	                	;
 Node-40             	1674.0      	0.0         	                	;
 Node-41             	1665.0      	0.0         	                	;
 Node-42             	1659.0      	0.0         	                	;
 Node-43             	1655.0      	0.0         	                	;
 Node-44             	1650.0      	0.0         	                	;
 Node-45             	1650.0      	0.0         	                	;
 Node-46             	1659.0      	0.0         	                	;
 Node-47             	1647.0      	0.0         	                	;
 Node-48             	1641.0      	0.0         	                	;
 Node-49             	1639.0      	0.0         	                	;
 Node-118            	1639.0      	0.0         	                	;
 Node-52             	1634.0      	0.0         	                	;
 Node-53             	1636.0      	0.0         	                	;
 Node-56             	1640.0      	0.0         	                	;
 Node-57             	1641.0      	0.0         	                	;
 Node-96             	1641.0      	0.0         	                	;
 Node-59             	1641.0      	0.0         	                	;
 Node-60             	1640.0      	0.0         	                	;
 Node-62             	1640.0      	0.0         	                	;
 Node-63             	1640.0      	0.0         	                	;
 Node-64             	1640.0      	0.0         	                	;
 Node-65             	1638.0      	0.0         	                	;
 Node-66             	1638.0      	0.0         	                	;
 Node-67             	1637.0      	0.0         	                	;
 Node-68             	1637.0      	0.0         	                	;
 Node-69             	1632.0      	0.0         	                	;
 Node-70             	1633.0      	0.0         	                	;
 Node-71             	1632.0      	0.0         	                	;
 Node-72             	1632.0      	0.0         	                	;
 Node-73             	1631.0      	0.0         	                	;
 Node-74             	1631.0      	0.0         	                	;
 Node-75             	1631.0      	0.0         	                	;
 Node-98             	1631.0      	0.0         	                	;
 Node-97             	1630.0      	0.0         	                	;
 Node-78             	1632.0      	0.0         	                	;
 Node-79             	1633.0      	0.0         	                	;
 Node-80             	1635.0      	0.0         	                	;
 Node-81             	1637.0      	0.0         	                	;
 Node-99             	1639.0      	0.0         	                	;
 Node-83             	1640.0      	0.0         	                	;
 Node-84             	1644.0      	0.0         	                	;
 Node-85             	1647.0      	0.0         	                	;
 Node-117            	1650.0      	0.0         	                	;
 Node-87             	1651.0      	0.0         	                	;
 Node-88             	1652.0      	0.0         	                	;
 Node-89             	1650.0      	0.0         	                	;
 Node-90             	1648.0      	0.0         	                	;
 Node-91             	1645.0      	0.0         	                	;
 Node-92             	1639.0      	0.0         	                	;
 Node-119            	1639.0      	0.0         	                	;
 Node-94             	1639.0      	0.003703704 	                	;
 Node-95             	1639.0      	0.0         	                	;
 Node-100            	1641.0      	0.013888889 	                	;
 Node-101            	1647.0      	0.277777778 	                	;
 Node-102            	1647.0      	0.0         	                	;
 Node-104            	1650.0      	0.0         	                	;
 Node-105            	1649.0      	0.0         	                	;
 Node-106            	1650.0      	0.0         	                	;
 Node-107            	1650.0      	0.0         	                	;
 Node-108            	1649.0      	0.0         	                	;
 Node-109            	1651.0      	0.0         	                	;
 Node-110            	1653.0      	0.0         	                	;
 Node-111            	1656.0      	0.0         	                	;
 Node-112            	1656.0      	0.0         	                	;
 Node-113            	1660.0      	0.0         	                	;
 Node-114            	1658.0      	0.0         	                	;
 Node-115            	1656.0      	0.0         	                	;
 Node-116            	1653.0      	0.0         	                	;
 Node-120            	1639.0      	0.0         	                	;
 Node-122            	1707.0      	0.277777778 	                	;
 Node-196            	1752.0      	0.0         	                	;
 Node-124            	1752.0      	0.138888889 	                	;
 Node-221            	1878.0      	0.0         	                	;
 Node-126            	1872.0      	0.0         	                	;
 Node-127            	1867.0      	0.0         	                	;
 Node-128            	1861.0      	0.0         	                	;
 Node-129            	1854.0      	0.0         	                	;
 Node-130            	1850.0      	0.0         	                	;
 Node-131            	1848.0      	0.0         	                	;
 Node-132            	1851.0      	0.0         	                	;
 Node-133            	1854.0      	0.0         	                	;
 Node-134            	1860.0      	0.0         	                	;
 Node-135            	1860.0      	0.0         	                	;
 Node-136            	1864.0      	0.0         	                	;
 Node-137            	1867.0      	0.0         	                	;
 Node-138            	1867.0      	0.0         	                	;
 Node-139            	1865.0      	0.0         	                	;
 Node-140            	1864.0      	0.0         	                	;
 Node-141            	1863.0      	0.0         	                	;
 Node-142            	1862.0      	0.0         	                	;
 Node-143            	1861.0      	0.0         	                	;
 Node-144            	1861.0      	0.0         	                	;
 Node-145            	1860.0      	0.0         	                	;
 Node-146            	1858.0      	0.0         	                	;
 Node-222            	1862.0      	0.0         	                	;
 Node-148            	1860.0      	0.0         	                	;
 Node-149            	1858.0      	0.0         	                	;
 Node-150            	1854.0      	0.0         	                	;
 Node-151            	1852.0      	0.0         	                	;
 Node-152            	1850.0      	0.0         	                	;
 Node-153            	1846.0      	0.0         	                	;
 Node-154            	1844.0      	0.0         	                	;
 Node-155            	1843.0      	0.0         	                	;
 Node-156            	1842.0      	0.0         	                	;
 Node-157            	1838.0      	0.0         	                	;
 Node-158            	1836.0      	0.0         	                	;
 Node-159            	1838.0      	0.0         	                	;
 Node-160            	1838.0      	0.0         	                	;
 Node-161            	1836.0      	0.0         	                	;
 Node-162            	1837.0      	0.0         	                	;
 Node-163            	1838.0      	0.0         	                	;
 Node-164            	1838.0      	0.0         	                	;
 Node-165            	1836.0      	0.0         	                	;
 Node-166            	1836.0      	0.0         	                	;
 Node-167            	1835.0      	0.0         	                	;
 Node-168            	1833.0      	0.0         	                	;
 Node-169            	1834.0      	0.0         	                	;
 Node-224            	1833.0      	0.0         	                	;
 Node-171            	1832.0      	0.0         	                	;
 Node-172            	1832.0      	0.0         	                	;
 Node-173            	1831.0      	0.0         	                	;
 Node-174            	1828.0      	0.0         	                	;
 Node-175            	1825.0      	0.0         	                	;
 Node-176            	1822.0      	0.0         	                	;
 Node-177            	1815.0      	0.0         	                	;
 Node-178            	1809.0      	0.0         	                	;
 Node-179            	1801.0      	0.0         	                	;
 Node-180            	1797.0      	0.0         	                	;
 Node-181            	1789.0      	0.0         	                	;
 Node-182            	1786.0      	0.0         	                	;
 Node-227            	1784.0      	0.0         	                	;
 Node-184            	1782.0      	0.0         	                	;
 Node-185            	1780.0      	0.0         	                	;
 Node-186            	1776.0      	0.0         	                	;
 Node-187            	1771.0      	0.0         	                	;
 Node-188            	1770.0      	0.0         	                	;
 Node-189            	1767.0      	0.0         	                	;
 Node-190            	1763.0      	0.0         	                	;
 Node-191            	1759.0      	0.0         	                	;
 Node-192            	1755.0      	0.0         	                	;
 Node-193            	1754.0      	0.0         	                	;
 Node-194            	1753.0      	0.0         	                	;
 Node-195            	1753.0      	0.0         	                	;
 Node-197            	1751.0      	0.0         	                	;
 Node-198            	1752.0      	0.0         	                	;
 Node-199            	1749.0      	0.0         	                	;
 Node-200            	1746.0      	0.0         	                	;
 Node-201            	1743.0      	0.0         	                	;
 Node-202            	1741.0      	0.0         	                	;
 Node-204            	1738.0      	0.0         	                	;
 Node-208            	1737.0      	0.0         	                	;
 Node-209            	1737.0      	0.0         	                	;
 Node-210            	1737.0      	0.0         	                	;
 Node-211            	1738.0      	0.0         	                	;
 Node-212            	1738.0      	0.0         	                	;
 Node-213            	1738.0      	0.0         	                	;
 Node-214            	1738.0      	0.0         	                	;
 Node-215            	1737.0      	0.0         	                	;
 Node-235            	1888.0      	0.0         	                	;
 Node-218            	1884.0      	0.0         	                	;
 Node-219            	1884.0      	0.0         	                	;
 Node-220            	1879.0      	0.0         	                	;
 Node-223            	1862.0      	0.185185185 	                	;
 Node-225            	1832.0      	0.0         	                	;
 Node-226            	1832.0      	0.231481481 	                	;
 Node-228            	1784.0      	0.231481481 	                	;
 Node-230            	1896.0      	0.0         	                	;
 Node-231            	1888.0      	0.0         	                	;
 Node-234            	1888.0      	0.0         	                	;

[RESERVOIRS]
;ID                  	Head        	Pattern         
 Spring-5330         	1895        	                	;
 Spring-5331         	1896        	                	;

[TANKS]
;ID                  	Elevation   	InitLevel   	MinLevel    	MaxLevel    	Diameter    	MinVol      	VolCurve
 Tank-18978          	1737        	0.75        	0.15000000000000002     	1.5         	5           	60.0        	                	;

[PIPES]
;ID                  	Node1               	Node2               	Length      	Diameter    	Roughness   	MinorLoss   	Status
 Pipe-109108-0       	Node-1              	Node-2              	4.458       	25          	100         	0           	Open  	;
 Pipe-109108-1       	Node-2              	Node-61             	8.645       	25          	100         	0           	Open  	;
 Pipe-109102-0       	Node-4              	Node-5              	9.278       	25          	100         	0           	Open  	;
 Pipe-109102-1       	Node-5              	Node-6              	11.297      	25          	100         	0           	Open  	;
 Pipe-109102-2       	Node-6              	Node-7              	11.26       	25          	100         	0           	Open  	;
 Pipe-109102-3       	Node-7              	Node-55             	13.435      	25          	100         	0           	Open  	;
 Pipe-109103-0       	Node-54             	Node-10             	6.366       	25          	100         	0           	Open  	;
 Pipe-109104-0       	Node-51             	Node-12             	3.704       	25          	100         	0           	Open  	;
 Pipe-109105-0       	Node-216            	Node-14             	14.38       	63          	100         	0           	Open  	;
 Pipe-109105-1       	Node-14             	Node-15             	37.35       	63          	100         	0           	Open  	;
 Pipe-109105-2       	Node-15             	Node-16             	38.119      	63          	100         	0           	Open  	;
 Pipe-109105-3       	Node-16             	Node-17             	33.513      	63          	100         	0           	Open  	;
 Pipe-109105-4       	Node-17             	Node-18             	40.193      	63          	100         	0           	Open  	;
 Pipe-109105-5       	Node-18             	Node-19             	42.809      	63          	100         	0           	Open  	;
 Pipe-109105-6       	Node-19             	Node-121            	42.24       	63          	100         	0           	Open  	;
 Pipe-109105-7       	Node-121            	Node-21             	3.405       	63          	100         	0           	Open  	;
 Pipe-109105-8       	Node-21             	Node-22             	5.403       	63          	100         	0           	Open  	;
 Pipe-109105-9       	Node-22             	Node-23             	4.582       	63          	100         	0           	Open  	;
 Pipe-109105-10      	Node-23             	Node-24             	6.136       	63          	100         	0           	Open  	;
 Pipe-109105-11      	Node-24             	Node-25             	7.716       	63          	100         	0           	Open  	;
 Pipe-109105-12      	Node-25             	Node-26             	5.494       	63          	100         	0           	Open  	;
 Pipe-109105-13      	Node-26             	Node-27             	26.885      	63          	100         	0           	Open  	;
 Pipe-109105-14      	Node-27             	Node-28             	45.958      	63          	100         	0           	Open  	;
 Pipe-109105-15      	Node-28             	Node-29             	38.724      	63          	100         	0           	Open  	;
 Pipe-109105-16      	Node-29             	Node-30             	34.272      	63          	100         	0           	Open  	;
 Pipe-109105-17      	Node-30             	Node-31             	19.661      	63          	100         	0           	Open  	;
 Pipe-109105-18      	Node-31             	Node-32             	16.603      	63          	100         	0           	Open  	;
 Pipe-109105-19      	Node-32             	Node-33             	21.624      	63          	100         	0           	Open  	;
 Pipe-109105-20      	Node-33             	Node-34             	25.257      	63          	100         	0           	Open  	;
 Pipe-109105-21      	Node-34             	Node-35             	34.287      	63          	100         	0           	Open  	;
 Pipe-109105-22      	Node-35             	Node-36             	48.221      	63          	100         	0           	Open  	;
 Pipe-109105-23      	Node-36             	Node-37             	46.586      	63          	100         	0           	Open  	;
 Pipe-109105-24      	Node-37             	Node-38             	49.562      	63          	100         	0           	Open  	;
 Pipe-109105-25      	Node-38             	Node-39             	57.867      	63          	100         	0           	Open  	;
 Pipe-109105-26      	Node-39             	Node-40             	52.625      	63          	100         	0           	Open  	;
 Pipe-109105-27      	Node-40             	Node-41             	53.445      	63          	100         	0           	Open  	;
 Pipe-109105-28      	Node-41             	Node-42             	53.149      	63          	100         	0           	Open  	;
 Pipe-109105-29      	Node-42             	Node-43             	55.131      	63          	100         	0           	Open  	;
 Pipe-109105-30      	Node-43             	Node-44             	76.333      	63          	100         	0           	Open  	;
 Pipe-109105-31      	Node-44             	Node-45             	53.88       	63          	100         	0           	Open  	;
 Pipe-109105-32      	Node-45             	Node-46             	44.83       	63          	100         	0           	Open  	;
 Pipe-109105-33      	Node-46             	Node-47             	37.381      	63          	100         	0           	Open  	;
 Pipe-109105-34      	Node-47             	Node-48             	36.737      	63          	100         	0           	Open  	;
 Pipe-109105-35      	Node-48             	Node-49             	20.938      	63          	100         	0           	Open  	;
 Pipe-109105-36      	Node-49             	Node-118            	16.245      	63          	100         	0           	Open  	;
 Pipe-109099-0       	Node-51             	Node-52             	11.549      	63          	100         	0           	Open  	;
 Pipe-109099-1       	Node-52             	Node-53             	22.804      	63          	100         	0           	Open  	;
 Pipe-109099-2       	Node-53             	Node-54             	34.297      	63          	100         	0           	Open  	;
 Pipe-109099-3       	Node-54             	Node-55             	26.712      	63          	100         	0           	Open  	;
 Pipe-109099-4       	Node-55             	Node-56             	19.26       	63          	100         	0           	Open  	;
 Pipe-109099-5       	Node-56             	Node-57             	23.284      	63          	100         	0           	Open  	;
 Pipe-109099-6       	Node-57             	Node-96             	18.875      	63          	100         	0           	Open  	;
 Pipe-109099-7       	Node-96             	Node-59             	18.871      	63          	100         	0           	Open  	;
 Pipe-109099-8       	Node-59             	Node-60             	22.245      	63          	100         	0           	Open  	;
 Pipe-109099-9       	Node-60             	Node-61             	19.266      	63          	100         	0           	Open  	;
 Pipe-109099-10      	Node-61             	Node-62             	27.41       	63          	100         	0           	Open  	;
 Pipe-109099-11      	Node-62             	Node-63             	27.186      	63          	100         	0           	Open  	;
 Pipe-109099-12      	Node-63             	Node-64             	33.843      	63          	100         	0           	Open  	;
 Pipe-109099-13      	Node-64             	Node-65             	45.777      	63          	100         	0           	Open  	;
 Pipe-109099-14      	Node-65             	Node-66             	41.444      	63          	100         	0           	Open  	;
 Pipe-109099-15      	Node-66             	Node-67             	37.183      	63          	100         	0           	Open  	;
 Pipe-109099-16      	Node-67             	Node-68             	40.138      	63          	100         	0           	Open  	;
 Pipe-109099-17      	Node-68             	Node-69             	39.326      	63          	100         	0           	Open  	;
 Pipe-109099-18      	Node-69             	Node-70             	33.631      	63          	100         	0           	Open  	;
 Pipe-109099-19      	Node-70             	Node-71             	28.682      	63          	100         	0           	Open  	;
 Pipe-109099-20      	Node-71             	Node-72             	27.145      	63          	100         	0           	Open  	;
 Pipe-109099-21      	Node-72             	Node-73             	16.087      	63          	100         	0           	Open  	;
 Pipe-109099-22      	Node-73             	Node-74             	11.21       	63          	100         	0           	Open  	;
 Pipe-109099-23      	Node-74             	Node-75             	11.48       	63          	100         	0           	Open  	;
 Pipe-109099-24      	Node-75             	Node-98             	20.97       	63          	100         	0           	Open  	;
 Pipe-109100-0       	Node-97             	Node-78             	13.551      	63          	100         	0           	Open  	;
 Pipe-109100-1       	Node-78             	Node-79             	13.377      	63          	100         	0           	Open  	;
 Pipe-109100-2       	Node-79             	Node-80             	29.583      	63          	100         	0           	Open  	;
 Pipe-109100-3       	Node-80             	Node-81             	31.763      	63          	100         	0           	Open  	;
 Pipe-109100-4       	Node-81             	Node-99             	32.706      	63          	100         	0           	Open  	;
 Pipe-109100-5       	Node-99             	Node-83             	20.416      	63          	100         	0           	Open  	;
 Pipe-109100-6       	Node-83             	Node-84             	31.274      	63          	100         	0           	Open  	;
 Pipe-109100-7       	Node-84             	Node-85             	29.923      	63          	100         	0           	Open  	;
 Pipe-109100-8       	Node-85             	Node-117            	29.581      	63          	100         	0           	Open  	;
 Pipe-109100-9       	Node-117            	Node-87             	31.102      	63          	100         	0           	Open  	;
 Pipe-109100-10      	Node-87             	Node-88             	38.568      	63          	100         	0           	Open  	;
 Pipe-109100-11      	Node-88             	Node-89             	42.297      	63          	100         	0           	Open  	;
 Pipe-109100-12      	Node-89             	Node-90             	22.294      	63          	100         	0           	Open  	;
 Pipe-109100-13      	Node-90             	Node-91             	17.462      	63          	100         	0           	Open  	;
 Pipe-109100-14      	Node-91             	Node-92             	30.643      	63          	100         	0           	Open  	;
 Pipe-109100-15      	Node-92             	Node-119            	23.184      	63          	100         	0           	Open  	;
 Pipe-109101-0       	Node-94             	Node-95             	5.927       	25          	100         	0           	Open  	;
 Pipe-109101-1       	Node-95             	Node-96             	9.877       	25          	100         	0           	Open  	;
 Pipe-109106-0       	Node-97             	Node-98             	17.014      	63          	100         	0           	Open  	;
 Pipe-109107-0       	Node-99             	Node-100            	10.955      	25          	100         	0           	Open  	;
 Pipe-109109-0       	Node-101            	Node-102            	3.808       	25          	100         	0           	Open  	;
 Pipe-109109-1       	Node-102            	Node-104            	4.945       	25          	100         	0           	Open  	;
 Pipe-109110-0       	Node-104            	Node-105            	20.159      	50          	100         	0           	Open  	;
 Pipe-109110-1       	Node-105            	Node-106            	28.951      	50          	100         	0           	Open  	;
 Pipe-109110-2       	Node-106            	Node-107            	26.49       	50          	100         	0           	Open  	;
 Pipe-109110-3       	Node-107            	Node-108            	22.627      	50          	100         	0           	Open  	;
 Pipe-109110-4       	Node-108            	Node-109            	44.236      	50          	100         	0           	Open  	;
 Pipe-109110-5       	Node-109            	Node-110            	30.07       	50          	100         	0           	Open  	;
 Pipe-109110-6       	Node-110            	Node-111            	19.134      	50          	100         	0           	Open  	;
 Pipe-109110-7       	Node-111            	Node-112            	20.798      	50          	100         	0           	Open  	;
 Pipe-109110-8       	Node-112            	Node-113            	27.296      	50          	100         	0           	Open  	;
 Pipe-109110-9       	Node-113            	Node-114            	26.141      	50          	100         	0           	Open  	;
 Pipe-109110-10      	Node-114            	Node-115            	36.577      	50          	100         	0           	Open  	;
 Pipe-109110-11      	Node-115            	Node-116            	32.504      	50          	100         	0           	Open  	;
 Pipe-109110-12      	Node-116            	Node-117            	26.785      	50          	100         	0           	Open  	;
 Pipe-109111-0       	Node-118            	Node-119            	12.176      	63          	100         	0           	Open  	;
 Pipe-109111-1       	Node-119            	Node-120            	2.7         	63          	100         	0           	Open  	;
 Pipe-109112-0       	Node-121            	Node-122            	9.156       	25          	100         	0           	Open  	;
 Pipe-109113-0       	Node-196            	Node-124            	2.948       	25          	100         	0           	Open  	;
 Pipe-109114-0       	Node-221            	Node-126            	19.888      	63          	100         	0           	Open  	;
 Pipe-109114-1       	Node-126            	Node-127            	18.643      	63          	100         	0           	Open  	;
 Pipe-109114-2       	Node-127            	Node-128            	22.265      	63          	100         	0           	Open  	;
 Pipe-109114-3       	Node-128            	Node-129            	22.427      	63          	100         	0           	Open  	;
 Pipe-109114-4       	Node-129            	Node-130            	24.452      	63          	100         	0           	Open  	;
 Pipe-109114-5       	Node-130            	Node-131            	27.903      	63          	100         	0           	Open  	;
 Pipe-109114-6       	Node-131            	Node-132            	26.819      	63          	100         	0           	Open  	;
 Pipe-109114-7       	Node-132            	Node-133            	31.561      	63          	100         	0           	Open  	;
 Pipe-109114-8       	Node-133            	Node-134            	36.896      	63          	100         	0           	Open  	;
 Pipe-109114-9       	Node-134            	Node-135            	32.121      	63          	100         	0           	Open  	;
 Pipe-109114-10      	Node-135            	Node-136            	35.721      	63          	100         	0           	Open  	;
 Pipe-109114-11      	Node-136            	Node-137            	25.281      	63          	100         	0           	Open  	;
 Pipe-109114-12      	Node-137            	Node-138            	23.85       	63          	100         	0           	Open  	;
 Pipe-109114-13      	Node-138            	Node-139            	27.926      	63          	100         	0           	Open  	;