[TITLE]
2047 Biruru-Rugomero-Mbogo WSS in Huye District

[JUNCTIONS]
;ID                  	Elev        	Demand      	Pattern         
 Node-180            	1648.0      	0.0         	                	;
 Node-27             	1761.0      	0.0         	                	;
 Node-4              	1761.0      	0.0         	                	;
 Node-5              	1759.0      	0.0         	                	;
 Node-6              	1757.0      	0.0         	                	;
 Node-251            	1669.0      	0.0         	                	;
 Node-8              	1669.0      	0.00462963  	                	;
 Node-10             	1767.0      	0.0         	                	;
 Node-11             	1763.0      	0.0         	                	;
 Node-12             	1761.0      	0.0         	                	;
 Node-15             	1765.0      	0.0         	                	;
 Node-16             	1763.0      	0.0         	                	;
 Node-17             	1761.0      	0.0         	                	;
 Node-20             	1720.0      	0.0         	                	;
 Node-21             	1719.0      	0.0         	                	;
 Node-188            	1718.0      	0.0         	                	;
 Node-24             	1720.0      	0.0         	                	;
 Node-25             	1720.0      	0.0         	                	;
 Node-28             	1761.0      	0.0         	                	;
 Node-29             	1759.0      	0.0         	                	;
 Node-30             	1761.0      	0.0         	                	;
 Node-31             	1756.0      	0.0         	                	;
 Node-32             	1751.0      	0.0         	                	;
 Node-33             	1747.0      	0.0         	                	;
 Node-34             	1744.0      	0.0         	                	;
 Node-35             	1742.0      	0.0         	                	;
 Node-36             	1740.0      	0.0         	                	;
 Node-37             	1733.0      	0.0         	                	;
 Node-38             	1725.0      	0.0         	                	;
 Node-39             	1725.0      	0.0         	                	;
 Node-40             	1722.0      	0.0         	                	;
 Node-41             	1720.0      	0.0         	                	;
 Node-42             	1719.0      	0.0         	                	;
 Node-43             	1713.0      	0.0         	                	;
 Node-44             	1710.0      	0.0         	                	;
 Node-45             	1708.0      	0.0         	                	;
 Node-46             	1707.0      	0.0         	                	;
 Node-47             	1704.0      	0.0         	                	;
 Node-48             	1703.0      	0.0         	                	;
 Node-49             	1702.0      	0.0         	                	;
 Node-50             	1697.0      	0.231481481 	                	;
 Node-382            	1697.0      	0.0         	                	;
 Node-52             	1698.0      	0.0         	                	;
 Node-53             	1698.0      	0.0         	                	;
 Node-54             	1699.0      	0.0         	                	;
 Node-55             	1700.0      	0.0         	                	;
 Node-56             	1701.0      	0.0         	                	;
 Node-57             	1702.0      	0.0         	                	;
 Node-128            	1702.0      	0.0         	                	;
 Node-60             	1717.0      	0.166666667 	                	;
 Node-61             	1717.0      	0.0         	                	;
 Node-62             	1718.0      	0.0         	                	;
 Node-65             	1703.0      	0.0         	                	;
 Node-67             	1703.0      	0.0         	                	;
 Node-70             	1703.0      	0.0         	                	;
 Node-71             	1703.0      	0.0         	                	;
 Node-72             	1704.0      	0.0         	                	;
 Node-73             	1703.0      	0.0         	                	;
 Node-74             	1699.0      	0.0         	                	;
 Node-75             	1697.0      	0.0         	                	;
 Node-76             	1692.0      	0.0         	                	;
 Node-77             	1690.0      	0.0         	                	;
 Node-78             	1687.0      	0.0         	                	;
 Node-79             	1686.0      	0.0         	                	;
 Node-80             	1686.0      	0.0         	                	;
 Node-81             	1685.0      	0.0         	                	;
 Node-82             	1686.0      	0.0         	                	;
 Node-83             	1687.0      	0.0         	                	;
 Node-84             	1687.0      	0.0         	                	;
 Node-85             	1686.0      	0.0         	                	;
 Node-86             	1685.0      	0.0         	                	;
 Node-87             	1685.0      	0.0         	                	;
 Node-88             	1685.0      	0.0         	                	;
 Node-89             	1684.0      	0.0         	                	;
 Node-90             	1677.0      	0.0         	                	;
 Node-91             	1673.0      	0.0         	                	;
 Node-92             	1676.0      	0.0         	                	;
 Node-93             	1674.0      	0.0         	                	;
 Node-94             	1669.0      	0.0         	                	;
 Node-95             	1670.0      	0.0         	                	;
 Node-96             	1669.0      	0.0         	                	;
 Node-97             	1671.0      	0.0         	                	;
 Node-98             	1669.0      	0.0         	                	;
 Node-99             	1666.0      	0.0         	                	;
 Node-100            	1666.0      	0.0         	                	;
 Node-101            	1666.0      	0.0         	                	;
 Node-102            	1665.0      	0.0         	                	;
 Node-103            	1661.0      	0.0         	                	;
 Node-104            	1660.0      	0.0         	                	;
 Node-105            	1658.0      	0.0         	                	;
 Node-106            	1654.0      	0.0         	                	;
 Node-107            	1644.0      	0.0         	                	;
 Node-108            	1644.0      	0.0         	                	;
 Node-109            	1646.0      	0.0         	                	;
 Node-110            	1651.0      	0.0         	                	;
 Node-111            	1654.0      	0.0         	                	;
 Node-112            	1656.0      	0.0         	                	;
 Node-113            	1661.0      	0.0         	                	;
 Node-114            	1661.0      	0.0         	                	;
 Node-115            	1657.0      	0.0         	                	;
 Node-116            	1655.0      	0.0         	                	;
 Node-117            	1656.0      	0.0         	                	;
 Node-118            	1650.0      	0.0         	                	;
 Node-119            	1644.0      	0.0         	                	;
 Node-120            	1641.0      	0.0         	                	;
 Node-121            	1642.0      	0.0         	                	;
 Node-122            	1641.0      	0.0         	                	;
 Node-123            	1641.0      	0.0         	                	;
 Node-124            	1642.0      	0.0         	                	;
 Node-125            	1643.0      	0.0         	                	;
 Node-256            	1645.0      	0.0         	                	;
 Node-129            	1701.0      	0.0         	                	;
 Node-130            	1700.0      	0.0         	                	;
 Node-131            	1699.0      	0.0         	                	;
 Node-132            	1697.0      	0.0         	                	;
 Node-133            	1695.0      	0.0         	                	;
 Node-136            	1694.0      	0.0         	                	;
 Node-373            	1691.0      	0.0         	                	;
 Node-137            	1693.0      	0.248148148 	                	;
 Node-138            	1644.0      	0.023148148 	                	;
 Node-139            	1645.0      	0.0         	                	;
 Node-140            	1645.0      	0.0         	                	;
 Node-141            	1645.0      	0.0         	                	;
 Node-142            	1645.0      	0.0         	                	;
 Node-143            	1646.0      	0.0         	                	;
 Node-144            	1646.0      	0.0         	                	;
 Node-145            	1648.0      	0.0         	                	;
 Node-147            	1702.0      	0.555555556 	                	;
 Node-148            	1701.0      	0.0         	                	;
 Node-149            	1700.0      	0.0         	                	;
 Node-150            	1698.0      	0.0         	                	;
 Node-151            	1697.0      	0.0         	                	;
 Node-152            	1693.0      	0.0         	                	;
 Node-153            	1688.0      	0.0         	                	;
 Node-154            	1688.0      	0.0         	                	;
 Node-155            	1684.0      	0.0         	                	;
 Node-156            	1677.0      	0.0         	                	;
 Node-157            	1672.0      	0.0         	                	;
 Node-158            	1668.0      	0.0         	                	;
 Node-159            	1664.0      	0.0         	                	;
 Node-160            	1662.0      	0.0         	                	;
 Node-161            	1661.0      	0.0         	                	;
 Node-162            	1660.0      	0.0         	                	;
 Node-163            	1661.0      	0.0         	                	;
 Node-164            	1657.0      	0.0         	                	;
 Node-165            	1656.0      	0.0         	                	;
 Node-166            	1655.0      	0.0         	                	;
 Node-167            	1654.0      	0.0         	                	;
 Node-168            	1655.0      	0.0         	                	;
 Node-169            	1660.0      	0.0         	                	;
 Node-170            	1664.0      	0.0         	                	;
 Node-171            	1663.0      	0.0         	                	;
 Node-172            	1663.0      	0.0         	                	;
 Node-173            	1661.0      	0.0         	                	;
 Node-174            	1661.0      	0.0         	                	;
 Node-175            	1660.0      	0.0         	                	;
 Node-176            	1654.0      	0.0         	                	;
 Node-181            	1651.0      	0.0         	                	;
 Node-179            	1646.0      	0.0         	                	;
 Node-183            	1718.0      	0.0         	                	;
 Node-184            	1718.0      	0.0         	                	;
 Node-219            	1714.0      	0.0         	                	;
 Node-186            	1714.0      	0.0         	                	;
 Node-187            	1714.0      	0.005555556 	                	;
 Node-189            	1718.0      	0.0         	                	;
 Node-190            	1717.0      	0.0         	                	;
 Node-191            	1711.0      	0.0         	                	;
 Node-192            	1706.0      	0.0         	                	;
 Node-193            	1702.0      	0.0         	                	;
 Node-194            	1698.0      	0.0         	                	;
 Node-195            	1695.0      	0.0         	                	;
 Node-196            	1693.0      	0.0         	                	;
 Node-197            	1692.0      	0.0         	                	;
 Node-198            	1692.0      	0.0         	                	;
 Node-199            	1694.0      	0.0         	                	;
 Node-200            	1703.0      	0.0         	                	;
 Node-201            	1704.0      	0.0         	                	;
 Node-202            	1702.0      	0.0         	                	;
 Node-203            	1704.0      	0.0         	                	;
 Node-204            	1705.0      	0.0         	                	;
 Node-205            	1708.0      	0.0         	                	;
 Node-206            	1706.0      	0.0         	                	;
 Node-207            	1706.0      	0.0         	                	;
 Node-208            	1708.0      	0.0         	                	;
 Node-209            	1709.0      	0.0         	                	;
 Node-210            	1708.0      	0.0         	                	;
 Node-211            	1709.0      	0.0         	                	;
 Node-212            	1711.0      	0.0         	                	;
 Node-213            	1716.0      	0.0         	                	;
 Node-214            	1718.0      	0.0         	                	;
 Node-215            	1716.0      	0.0         	                	;
 Node-216            	1713.0      	0.0         	                	;
 Node-217            	1713.0      	0.0         	                	;
 Node-218            	1716.0      	0.0         	                	;
 Node-220            	1716.0      	0.0         	                	;
 Node-221            	1716.0      	0.0         	                	;
 Node-222            	1716.0      	0.0         	                	;
 Node-223            	1714.0      	0.0         	                	;
 Node-224            	1710.0      	0.0         	                	;
 Node-225            	1711.0      	0.0         	                	;
 Node-226            	1709.0      	0.0         	                	;
 Node-227            	1710.0      	0.0         	                	;
 Node-228            	1715.0      	0.0         	                	;
 Node-229            	1713.0      	0.0         	                	;
 Node-230            	1713.0      	0.0         	                	;
 Node-231            	1714.0      	0.0         	                	;
 Node-232            	1713.0      	0.0         	                	;
 Node-233            	1714.0      	0.0         	                	;
 Node-234            	1714.0      	0.0         	                	;
 Node-363            	1713.0      	0.0         	                	;
 Node-236            	1713.0      	0.0         	                	;
 Node-237            	1710.0      	0.0         	                	;
 Node-238            	1710.0      	0.0         	                	;
 Node-239            	1709.0      	0.0         	                	;
 Node-240            	1707.0      	0.0         	                	;
 Node-241            	1706.0      	0.0         	                	;
 Node-242            	1704.0      	0.0         	                	;
 Node-243            	1701.0      	0.0         	                	;
 Node-244            	1700.0      	0.0         	                	;
 Node-245            	1693.0      	0.0         	                	;
 Node-246            	1689.0      	0.0         	                	;
 Node-247            	1686.0      	0.0         	                	;
 Node-248            	1682.0      	0.0         	                	;
 Node-249            	1677.0      	0.0         	                	;
 Node-250            	1673.0      	0.0         	                	;
 Node-252            	1663.0      	0.0         	                	;
 Node-253            	1657.0      	0.0         	                	;
 Node-254            	1653.0      	0.0         	                	;
 Node-255            	1648.0      	0.0         	                	;
 Node-257            	1702.0      	0.0         	                	;
 Node-258            	1702.0      	0.0         	                	;
 Node-259            	1703.0      	0.0         	                	;
 Node-260            	1700.0      	0.0         	                	;
 Node-261            	1698.0      	0.0         	                	;
 Node-262            	1698.0      	0.0         	                	;
 Node-263            	1697.0      	0.0         	                	;
 Node-264            	1698.0      	0.0         	                	;
 Node-265            	1707.0      	0.0         	                	;
 Node-266            	1712.0      	0.0         	                	;
 Node-267            	1718.0      	0.0         	                	;
 Node-268            	1730.0      	0.0         	                	;
 Node-269            	1731.0      	0.0         	                	;
 Node-270            	1734.0      	0.0         	                	;
 Node-271            	1735.0      	0.0         	                	;
 Node-272            	1734.0      	0.0         	                	;
 Node-273            	1740.0      	0.0         	                	;
 Node-274            	1742.0      	0.0         	                	;
 Node-275            	1747.0      	0.0         	                	;
 Node-276            	1747.0      	0.0         	                	;
 Node-277            	1752.0      	0.0         	                	;
 Node-278            	1755.0      	0.0         	                	;
 Node-279            	1758.0      	0.0         	                	;
 Node-280            	1757.0      	0.0         	                	;
 Node-281            	1756.0      	0.0         	                	;
 Node-368            	1758.0      	0.0         	                	;
 Node-283            	1758.0      	0.0         	                	;
 Node-284            	1757.0      	0.0         	                	;
 Node-285            	1757.0      	0.0         	                	;
 Node-286            	1754.0      	0.0         	                	;
 Node-287            	1755.0      	0.0         	                	;
 Node-288            	1753.0      	0.0         	                	;
 Node-289            	1751.0      	0.0         	                	;
 Node-290            	1750.0      	0.0         	                	;
 Node-291            	1751.0      	0.0         	                	;
 Node-292            	1751.0      	0.0         	                	;
 Node-293            	1753.0      	0.0         	                	;
 Node-294            	1754.0      	0.0         	                	;
 Node-295            	1755.0      	0.0         	                	;
 Node-296            	1754.0      	0.0         	                	;
 Node-297            	1746.0      	0.0         	                	;
 Node-298            	1740.0      	0.0         	                	;
 Node-299            	1739.0      	0.0         	                	;
 Node-300            	1740.0      	0.0         	                	;
 Node-301            	1739.0      	0.0         	                	;
 Node-302            	1740.0      	0.0         	                	;
 Node-303            	1739.0      	0.0         	                	;
 Node-304            	1742.0      	0.0         	                	;
 Node-305            	1741.0      	0.0         	                	;
 Node-306            	1742.0      	0.0         	                	;
 Node-307            	1744.0      	0.0         	                	;
 Node-308            	1744.0      	0.0         	                	;
 Node-309            	1742.0      	0.0         	                	;
 Node-310            	1742.0      	0.0         	                	;
 Node-311            	1746.0      	0.0         	                	;
 Node-312            	1746.0      	0.0         	                	;
 Node-313            	1746.0      	0.0         	                	;
 Node-367            	1745.0      	0.0         	                	;
 Node-315            	1746.0      	0.0         	                	;
 Node-316            	1746.0      	0.0         	                	;
 Node-317            	1747.0      	0.0         	                	;
 Node-318            	1747.0      	0.0         	                	;
 Node-319            	1746.0      	0.0         	                	;
 Node-320            	1743.0      	0.0         	                	;
 Node-321            	1742.0      	0.0         	                	;
 Node-322            	1740.0      	0.0         	                	;
 Node-323            	1741.0      	0.0         	                	;
 Node-324            	1740.0      	0.0         	                	;
 Node-325            	1741.0      	0.0         	                	;
 Node-326            	1740.0      	0.0         	                	;
 Node-327            	1741.0      	0.0         	                	;
 Node-328            	1743.0      	0.0         	                	;
 Node-329            	1747.0      	0.0         	                	;
 Node-330            	1750.0      	0.0         	                	;
 Node-331            	1749.0      	0.0         	                	;
 Node-332            	1750.0      	0.0         	                	;
 Node-333            	1752.0      	0.0         	                	;
 Node-334            	1751.0      	0.0         	                	;
 Node-335            	1751.0      	0.0         	                	;
 Node-336            	1748.0      	0.0         	                	;
 Node-337            	1742.0      	0.0         	                	;
 Node-338            	1735.0      	0.0         	                	;
 Node-339            	1724.0      	0.0         	                	;
 Node-340            	1712.0      	0.0         	                	;
 Node-341            	1703.0      	0.0         	                	;
 Node-342            	1692.0      	0.0         	                	;
 Node-343            	1689.0      	0.0         	                	;
 Node-344            	1693.0      	0.0         	                	;
 Node-345            	1694.0      	0.0         	                	;
 Node-346            	1705.0      	0.0         	                	;
 Node-347            	1710.0      	0.0         	                	;
 Node-348            	1715.0      	0.0         	                	;
 Node-349            	1718.0      	0.0         	                	;
 Node-350            	1719.0      	0.0         	                	;
 Node-351            	1720.0      	0.0         	                	;
 Node-352            	1719.0      	0.0         	                	;
 Node-364            	1720.0      	0.0         	                	;
 Node-354            	1719.0      	0.0         	                	;
 Node-355            	1718.0      	0.0         	                	;
 Node-356            	1719.0      	0.0         	                	;
 Node-357            	1719.0      	0.0         	                	;
 Node-358            	1719.0      	0.0         	                	;
 Node-359            	1718.0      	0.0         	                	;
 Node-360            	1715.0      	0.0         	                	;
 Node-361            	1715.0      	0.0         	                	;
 Node-362            	1714.0      	0.0         	                	;
 Node-366            	1742.0      	0.37037037  	                	;
 Node-371            	1755.0      	0.0         	                	;
 Node-372            	1753.0      	0.231481481 	                	;
 Node-374            	1690.0      	0.161111111 	                	;
 Node-375            	1690.0      	0.001851852 	                	;
 Node-376            	1690.0      	0.0         	                	;
 Node-377            	1690.0      	0.0         	                	;
 Node-378            	1691.0      	0.0         	                	;
 Node-379            	1692.0      	0.0         	                	;
 Node-380            	1694.0      	0.0         	                	;
 Node-381            	1695.0      	0.0         	                	;

[RESERVOIRS]
;ID                  	Head        	Pattern         
 Spring-5325         	1769        	                	;
 Spring-5334         	1767        	                	;
 Spring-5335         	1721        	                	;
 Spring-5336         	1721        	                	;

[TANKS]
;ID                  	Elevation   	InitLevel   	MinLevel    	MaxLevel    	Diameter    	MinVol      	VolCurve
 Tank-18917          	1648        	0.75        	0.15000000000000002     	1.5         	5           	5.0         	                	;
 Tank-18918          	1755        	0.75        	0.15000000000000002     	1.5         	5           	5.0         	                	;
 Tank-18922          	1719        	0.75        	0.15000000000000002     	1.5         	5           	5.0         	                	;
 Tank-18923          	1703        	0.75        	0.15000000000000002     	1.5         	5           	20.0        	                	;
 Tank-18924          	1703        	0.75        	0.15000000000000002     	1.5         	5           	40.0        	                	;

[PIPES]
;ID                  	Node1               	Node2               	Length      	Diameter    	Roughness   	MinorLoss   	Status
 Pipe-109148-0       	Node-180            	Tank-18917          	4.187       	32          	100         	0           	Open  	;
 Pipe-109133-0       	Node-27             	Node-4              	5.32        	32          	100         	0           	Open  	;
 Pipe-109133-1       	Node-4              	Node-5              	5.431       	32          	100         	0           	Open  	;
 Pipe-109133-2       	Node-5              	Node-6              	5.002       	32          	100         	0           	Open  	;
 Pipe-109154-0       	Node-251            	Node-8              	17.057      	25          	100         	0           	Open  	;
 Pipe-109131-0       	Spring-5334         	Node-10             	9.788       	63          	100         	0           	Open  	;
 Pipe-109131-1       	Node-10             	Node-11             	11.29       	63          	100         	0           	Open  	;
 Pipe-109131-2       	Node-11             	Node-12             	9.363       	63          	100         	0           	Open  	;
 Pipe-109131-3       	Node-12             	Node-27             	4.04        	63          	100         	0           	Open  	;
 Pipe-109132-0       	Spring-5325         	Node-15             	7.025       	63          	100         	0           	Open  	;
 Pipe-109132-1       	Node-15             	Node-16             	10.269      	63          	100         	0           	Open  	;
 Pipe-109132-2       	Node-16             	Node-17             	9.197       	63          	100         	0           	Open  	;
 Pipe-109132-3       	Node-17             	Node-27             	4.095       	63          	100         	0           	Open  	;
 Pipe-109155-0       	Spring-5335         	Node-20             	8.45        	50          	100         	0           	Open  	;
 Pipe-109155-1       	Node-20             	Node-21             	5.659       	50          	100         	0           	Open  	;
 Pipe-109155-2       	Node-21             	Node-188            	2.45        	50          	100         	0           	Open  	;
 Pipe-109156-0       	Spring-5336         	Node-24             	8.987       	63          	100         	0           	Open  	;
 Pipe-109156-1       	Node-24             	Node-25             	5.988       	63          	100         	0           	Open  	;
 Pipe-109156-2       	Node-25             	Node-188            	2.348       	63          	100         	0           	Open  	;
 Pipe-109134-0       	Node-27             	Node-28             	5.596       	63          	100         	0           	Open  	;
 Pipe-109134-1       	Node-28             	Node-29             	26.128      	63          	100         	0           	Open  	;
 Pipe-109134-2       	Node-29             	Node-30             	27.907      	63          	100         	0           	Open  	;
 Pipe-109134-3       	Node-30             	Node-31             	25.659      	63          	100         	0           	Open  	;
 Pipe-109134-4       	Node-31             	Node-32             	24.929      	63          	100         	0           	Open  	;
 Pipe-109134-5       	Node-32             	Node-33             	31.631      	63          	100         	0           	Open  	;
 Pipe-109134-6       	Node-33             	Node-34             	30.139      	63          	100         	0           	Open  	;
 Pipe-109134-7       	Node-34             	Node-35             	34.824      	63          	100         	0           	Open  	;
 Pipe-109134-8       	Node-35             	Node-36             	40.979      	63          	100         	0           	Open  	;
 Pipe-109134-9       	Node-36             	Node-37             	32.877      	63          	100         	0           	Open  	;
 Pipe-109134-10      	Node-37             	Node-38             	31.82       	63          	100         	0           	Open  	;
 Pipe-109134-11      	Node-38             	Node-39             	31.137      	63          	100         	0           	Open  	;
 Pipe-109134-12      	Node-39             	Node-40             	33.004      	63          	100         	0           	Open  	;
 Pipe-109134-13      	Node-40             	Node-41             	35.119      	63          	100         	0           	Open  	;
 Pipe-109134-14      	Node-41             	Node-42             	50.314      	63          	100         	0           	Open  	;
 Pipe-109134-15      	Node-42             	Node-43             	39.643      	63          	100         	0           	Open  	;
 Pipe-109134-16      	Node-43             	Node-44             	41.636      	63          	100         	0           	Open  	;
 Pipe-109134-17      	Node-44             	Node-45             	43.449      	63          	100         	0           	Open  	;
 Pipe-109134-18      	Node-45             	Node-46             	45.95       	63          	100         	0           	Open  	;
 Pipe-109134-19      	Node-46             	Node-47             	39.646      	63          	100         	0           	Open  	;
 Pipe-109134-20      	Node-47             	Node-48             	36.057      	63          	100         	0           	Open  	;
 Pipe-109134-21      	Node-48             	Node-49             	36.331      	63          	100         	0           	Open  	;
 Pipe-109134-22      	Node-49             	Node-257            	34.777      	63          	100         	0           	Open  	;
 Pipe-109134-23      	Node-257            	Node-258            	26.439      	63          	100         	0           	Open  	;