[TITLE]
2048 Agatare WSS in Huye District

[JUNCTIONS]
;ID                  	Elev        	Demand      	Pattern         
 Node-1              	1809.0      	0.231481481 	                	;
 Node-2              	1810.0      	0.0         	                	;
 Node-70             	1810.0      	0.0         	                	;
 Node-5              	1796.0      	0.0         	                	;
 Node-6              	1797.0      	0.0         	                	;
 Node-7              	1793.0      	0.37037037  	                	;
 Node-8              	1796.0      	0.0         	                	;
 Node-11             	1787.0      	0.0         	                	;
 Node-12             	1787.0      	0.0         	                	;
 Node-13             	1787.0      	0.37037037  	                	;
 Node-15             	1787.0      	0.0         	                	;
 Node-16             	1788.0      	0.0         	                	;
 Node-17             	1788.0      	0.0         	                	;
 Node-18             	1787.0      	0.0         	                	;
 Node-19             	1782.0      	0.0         	                	;
 Node-20             	1779.0      	0.0         	                	;
 Node-21             	1779.0      	0.0         	                	;
 Node-22             	1783.0      	0.0         	                	;
 Node-23             	1786.0      	0.0         	                	;
 Node-24             	1788.0      	0.0         	                	;
 Node-25             	1792.0      	0.0         	                	;
 Node-26             	1793.0      	0.0         	                	;
 Node-27             	1795.0      	0.0         	                	;
 Node-30             	1797.0      	0.0         	                	;
 Node-31             	1798.0      	0.0         	                	;
 Node-32             	1797.0      	0.0         	                	;
 Node-33             	1791.0      	0.0         	                	;
 Node-34             	1792.0      	0.0         	                	;
 Node-35             	1786.0      	0.0         	                	;
 Node-87             	1781.0      	0.0         	                	;
 Node-37             	1788.0      	0.0         	                	;
 Node-38             	1792.0      	0.0         	                	;
 Node-39             	1795.0      	0.0         	                	;
 Node-40             	1796.0      	0.0         	                	;
 Node-41             	1798.0      	0.0         	                	;
 Node-42             	1800.0      	0.0         	                	;
 Node-43             	1794.0      	0.0         	                	;
 Node-44             	1797.0      	0.0         	                	;
 Node-45             	1796.0      	0.0         	                	;
 Node-46             	1796.0      	0.0         	                	;
 Node-47             	1793.0      	0.0         	                	;
 Node-48             	1792.0      	0.0         	                	;
 Node-49             	1795.0      	0.0         	                	;
 Node-50             	1802.0      	0.0         	                	;
 Node-51             	1809.0      	0.0         	                	;
 Node-52             	1807.0      	0.0         	                	;
 Node-53             	1807.0      	0.0         	                	;
 Node-54             	1804.0      	0.0         	                	;
 Node-90             	1800.0      	0.0         	                	;
 Node-56             	1799.0      	0.0         	                	;
 Node-57             	1800.0      	0.0         	                	;
 Node-58             	1799.0      	0.0         	                	;
 Node-59             	1797.0      	0.0         	                	;
 Node-60             	1801.0      	0.0         	                	;
 Node-61             	1799.0      	0.0         	                	;
 Node-62             	1798.0      	0.0         	                	;
 Node-63             	1798.0      	0.0         	                	;
 Node-64             	1795.0      	0.0         	                	;
 Node-65             	1794.0      	0.0         	                	;
 Node-66             	1802.0      	0.0         	                	;
 Node-67             	1803.0      	0.0         	                	;
 Node-68             	1803.0      	0.0         	                	;
 Node-69             	1808.0      	0.0         	                	;
 Node-71             	1810.0      	0.0         	                	;
 Node-73             	1715.0      	0.300925926 	                	;
 Node-74             	1720.0      	0.0         	                	;
 Node-75             	1725.0      	0.0         	                	;
 Node-76             	1728.0      	0.0         	                	;
 Node-77             	1735.0      	0.0         	                	;
 Node-78             	1743.0      	0.0         	                	;
 Node-79             	1748.0      	0.0         	                	;
 Node-80             	1756.0      	0.0         	                	;
 Node-81             	1762.0      	0.0         	                	;
 Node-82             	1771.0      	0.0         	                	;
 Node-83             	1774.0      	0.0         	                	;
 Node-84             	1775.0      	0.0         	                	;
 Node-85             	1777.0      	0.0         	                	;
 Node-86             	1780.0      	0.0         	                	;
 Node-89             	1800.0      	0.0         	                	;

[RESERVOIRS]
;ID                  	Head        	Pattern         
 Spring-5337         	1812        	                	;

[TANKS]
;ID                  	Elevation   	InitLevel   	MinLevel    	MaxLevel    	Diameter    	MinVol      	VolCurve
 Tank-18919          	1787        	0.75        	0.15000000000000002     	1.5         	5           	10.0        	                	;
 Tank-18920          	1796        	0.75        	0.15000000000000002     	1.5         	5           	5.0         	                	;
 Tank-18977          	1796        	0.75        	0.15000000000000002     	1.5         	5           	10.0        	                	;

[PIPES]
;ID                  	Node1               	Node2               	Length      	Diameter    	Roughness   	MinorLoss   	Status
 Pipe-109129-0       	Node-1              	Node-2              	3.899       	25          	100         	0           	Open  	;
 Pipe-109129-1       	Node-2              	Node-70             	2.628       	25          	100         	0           	Open  	;
 Pipe-109125-0       	Tank-18977          	Node-5              	4.207       	32          	100         	0           	Open  	;
 Pipe-109125-1       	Node-5              	Node-6              	3.161       	32          	100         	0           	Open  	;
 Pipe-109127-0       	Node-7              	Node-8              	21.21       	25          	100         	0           	Open  	;
 Pipe-109127-1       	Node-8              	Tank-18920          	12.382      	25          	100         	0           	Open  	;
 Pipe-109128-0       	Tank-18919          	Node-11             	2.771       	25          	100         	0           	Open  	;
 Pipe-109128-1       	Node-11             	Node-12             	8.875       	25          	100         	0           	Open  	;
 Pipe-109128-2       	Node-12             	Node-13             	6.364       	25          	100         	0           	Open  	;
 Pipe-109123-0       	Tank-18919          	Node-15             	3.874       	50          	100         	0           	Open  	;
 Pipe-109123-1       	Node-15             	Node-16             	5.532       	50          	100         	0           	Open  	;
 Pipe-109123-2       	Node-16             	Node-17             	39.742      	50          	100         	0           	Open  	;
 Pipe-109123-3       	Node-17             	Node-18             	55.078      	50          	100         	0           	Open  	;
 Pipe-109123-4       	Node-18             	Node-19             	77.946      	50          	100         	0           	Open  	;
 Pipe-109123-5       	Node-19             	Node-20             	55.738      	50          	100         	0           	Open  	;
 Pipe-109123-6       	Node-20             	Node-21             	61.423      	50          	100         	0           	Open  	;
 Pipe-109123-7       	Node-21             	Node-22             	59.337      	50          	100         	0           	Open  	;
 Pipe-109123-8       	Node-22             	Node-23             	38.435      	50          	100         	0           	Open  	;
 Pipe-109123-9       	Node-23             	Node-24             	59.608      	50          	100         	0           	Open  	;
 Pipe-109123-10      	Node-24             	Node-25             	42.099      	50          	100         	0           	Open  	;
 Pipe-109123-11      	Node-25             	Node-26             	15.497      	50          	100         	0           	Open  	;
 Pipe-109123-12      	Node-26             	Node-27             	20.84       	50          	100         	0           	Open  	;
 Pipe-109123-13      	Node-27             	Tank-18920          	12.261      	50          	100         	0           	Open  	;
 Pipe-109124-0       	Tank-18920          	Node-30             	8.178       	50          	100         	0           	Open  	;
 Pipe-109124-1       	Node-30             	Node-31             	13.044      	50          	100         	0           	Open  	;
 Pipe-109124-2       	Node-31             	Node-32             	19.85       	50          	100         	0           	Open  	;
 Pipe-109124-3       	Node-32             	Node-33             	25.618      	50          	100         	0           	Open  	;
 Pipe-109124-4       	Node-33             	Node-34             	33.274      	50          	100         	0           	Open  	;
 Pipe-109124-5       	Node-34             	Node-35             	33.178      	50          	100         	0           	Open  	;
 Pipe-109124-6       	Node-35             	Node-87             	30.787      	50          	100         	0           	Open  	;
 Pipe-109124-7       	Node-87             	Node-37             	34.735      	50          	100         	0           	Open  	;
 Pipe-109124-8       	Node-37             	Node-38             	47.588      	50          	100         	0           	Open  	;
 Pipe-109124-9       	Node-38             	Node-39             	15.521      	50          	100         	0           	Open  	;
 Pipe-109124-10      	Node-39             	Node-40             	14.283      	50          	100         	0           	Open  	;
 Pipe-109124-11      	Node-40             	Node-41             	10.879      	50          	100         	0           	Open  	;
 Pipe-109124-12      	Node-41             	Node-42             	14.285      	50          	100         	0           	Open  	;
 Pipe-109124-13      	Node-42             	Node-43             	49.439      	50          	100         	0           	Open  	;
 Pipe-109124-14      	Node-43             	Node-44             	60.287      	50          	100         	0           	Open  	;
 Pipe-109124-15      	Node-44             	Node-45             	14.47       	50          	100         	0           	Open  	;
 Pipe-109124-16      	Node-45             	Node-46             	12.953      	50          	100         	0           	Open  	;
 Pipe-109124-17      	Node-46             	Node-47             	16.919      	50          	100         	0           	Open  	;
 Pipe-109124-18      	Node-47             	Node-48             	19.545      	50          	100         	0           	Open  	;
 Pipe-109124-19      	Node-48             	Node-49             	48.696      	50          	100         	0           	Open  	;
 Pipe-109124-20      	Node-49             	Node-50             	43.952      	50          	100         	0           	Open  	;
 Pipe-109124-21      	Node-50             	Node-51             	31.325      	50          	100         	0           	Open  	;
 Pipe-109124-22      	Node-51             	Node-52             	26.96       	50          	100         	0           	Open  	;
 Pipe-109124-23      	Node-52             	Node-53             	22.58       	50          	100         	0           	Open  	;
 Pipe-109124-24      	Node-53             	Node-54             	33.853      	50          	100         	0           	Open  	;
 Pipe-109124-25      	Node-54             	Node-90             	28.002      	50          	100         	0           	Open  	;
 Pipe-109124-26      	Node-90             	Node-56             	28.352      	50          	100         	0           	Open  	;
 Pipe-109124-27      	Node-56             	Node-57             	25.589      	50          	100         	0           	Open  	;
 Pipe-109124-28      	Node-57             	Node-58             	47.411      	50          	100         	0           	Open  	;
 Pipe-109124-29      	Node-58             	Node-59             	43.076      	50          	100         	0           	Open  	;
 Pipe-109124-30      	Node-59             	Node-60             	22.85       	50          	100         	0           	Open  	;
 Pipe-109124-31      	Node-60             	Node-61             	11.329      	50          	100         	0           	Open  	;
 Pipe-109124-32      	Node-61             	Node-62             	20.552      	50          	100         	0           	Open  	;
 Pipe-109124-33      	Node-62             	Node-63             	20.56       	50          	100         	0           	Open  	;
 Pipe-109124-34      	Node-63             	Node-64             	24.486      	50          	100         	0           	Open  	;
 Pipe-109124-35      	Node-64             	Node-65             	38.254      	50          	100         	0           	Open  	;
 Pipe-109124-36      	Node-65             	Node-66             	45.146      	50          	100         	0           	Open  	;
 Pipe-109124-37      	Node-66             	Node-67             	43.299      	50          	100         	0           	Open  	;
 Pipe-109124-38      	Node-67             	Node-68             	42.952      	50          	100         	0           	Open  	;
 Pipe-109124-39      	Node-68             	Node-69             	31.556      	50          	100         	0           	Open  	;
 Pipe-109124-40      	Node-69             	Node-70             	14.435      	50          	100         	0           	Open  	;
 Pipe-109124-41      	Node-70             	Node-71             	4.431       	50          	100         	0           	Open  	;
 Pipe-109124-42      	Node-71             	Spring-5337         	4.122       	50          	100         	0           	Open  	;
 Pipe-109126-0       	Node-73             	Node-74             	24.257      	25          	100         	0           	Open  	;
 Pipe-109126-1       	Node-74             	Node-75             	25.154      	25          	100         	0           	Open  	;
 Pipe-109126-2       	Node-75             	Node-76             	32.974      	25          	100         	0           	Open  	;
 Pipe-109126-3       	Node-76             	Node-77             	42.618      	25          	100         	0           	Open  	;
 Pipe-109126-4       	Node-77             	Node-78             	48.679      	25          	100         	0           	Open  	;
 Pipe-109126-5       	Node-78             	Node-79             	43.615      	25          	100         	0           	Open  	;
 Pipe-109126-6       	Node-79             	Node-80             	56.294      	25          	100         	0           	Open  	;
 Pipe-109126-7       	Node-80             	Node-81             	47.667      	25          	100         	0           	Open  	;
 Pipe-109126-8       	Node-81             	Node-82             	49.437      	25          	100         	0           	Open  	;
 Pipe-109126-9       	Node-82             	Node-83             	25.618      	25          	100         	0           	Open  	;
 Pipe-109126-10      	Node-83             	Node-84             	34.781      	25          	100         	0           	Open  	;
 Pipe-109126-11      	Node-84             	Node-85             	51.997      	25          	100         	0           	Open  	;
 Pipe-109126-12      	Node-85             	Node-86             	64.822      	25          	100         	0           	Open  	;
 Pipe-109126-13      	Node-86             	Node-87             	30.062      	25          	100         	0           	Open  	;
 Pipe-109130-0       	Tank-18977          	Node-89             	4.09        	40          	100         	0           	Open  	;
 Pipe-109130-1       	Node-89             	Node-90             	8.316       	40          	100         	0           	Open  	;

[PUMPS]
;ID                  	Node1               	Node2               	Parameters  

[VALVES]
;ID                  	Node1           	Node2           	Diameter    	Type        	Setting     	MinorLoss   

[TAGS]

[DEMANDS]
;Junction        	Demand      	Pattern         	Category

[STATUS]
;ID              	Status/Setting

[PATTERNS]
;ID              	Multipliers

[CURVES]
;ID              	X-Value     	Y-Value     

[CONTROLS]

[RULES]

[ENERGY]
 Global Efficiency  	75
 Global Price       	0
 Demand Charge      	0

[EMITTERS]
;Junction        	Coefficient

[QUALITY]
;Node            	InitQual

[SOURCES]
;Node            	Type        	Quality     	Pattern

[REACTIONS]
;Type     	Pipe/Tank       	Coefficient


[REACTIONS]
 Order Bulk            	1
 Order Tank            	1
 Order Wall            	1
 Global Bulk           	0
 Global Wall           	0
 Limiting Potential    	0
 Roughness Correlation 	0

[MIXING]
;Tank            	Model

[TIMES]
 Duration           	0
 Hydraulic Timestep 	1:00
 Quality Timestep   	0:05
 Pattern Timestep   	1:00
 Pattern Start      	0:00
 Report Timestep    	1:00
 Report Start       	0:00
 Start ClockTime    	12 am
 Statistic          	None

[REPORT]
 Status             	No
 Summary            	No
 Page               	0

[OPTIONS]
 Units              	LPS
 Headloss           	H-W
 Specific Gravity   	1
 Viscosity          	1
 Trials             	40
 Accuracy           	0.001
 CHECKFREQ          	2
 MAXCHECK           	10
 DAMPLIMIT          	0
 Unbalanced         	Continue 10
 Pattern            	0
 Demand Multiplier  	1.0
 Emitter Exponent   	0.5
 Quality            	None mg/L
 Diffusivity        	1
 Tolerance          	0.01

[COORDINATES]
;Node                	X-Coord         	Y-Coord         
 Node-1              	29.61248        	-2.495483       
 Node-2              	29.612498       	-2.495453       
 Node-70             	29.612504       	-2.49543        
 Node-5              	29.608398       	-2.495224       
 Node-6              	29.608418       	-2.495243       
 Node-7              	29.606914       	-2.489652       
 Node-8              	29.607043       	-2.489793       
 Node-11             	29.604755       	-2.485592       
 Node-12             	29.604737       	-2.485513       
 Node-13             	29.604731       	-2.485456       
 Node-15             	29.604789       	-2.485636       
 Node-16             	29.604817       	-2.485677       
 Node-17             	29.604925       	-2.48602        
 Node-18             	29.605069       	-2.486495       
 Node-19             	29.605262       	-2.487172       
 Node-20             	29.605492       	-2.487619       
 Node-21             	29.605785       	-2.488089       
 Node-22             	29.606148       	-2.488481       
 Node-23             	29.606371       	-2.488746       
 Node-24             	29.606654       	-2.489203       
 Node-25             	29.606855       	-2.489525       
 Node-26             	29.606935       	-2.489639       
 Node-27             	29.60705        	-2.489788       
 Node-30             	29.607063       	-2.489917       
 Node-31             	29.606986       	-2.490005       
 Node-32             	29.606884       	-2.490152       
 Node-33             	29.606788       	-2.490362       
 Node-34             	29.606707       	-2.490652       
 Node-35             	29.606653       	-2.490946       
 Node-87             	29.606607       	-2.49122        
 Node-37             	29.606544       	-2.491528       
 Node-38             	29.606478       	-2.491952       
 Node-39             	29.606468       	-2.492092       
 Node-40             	29.606486       	-2.49222        
 Node-41             	29.606535       	-2.492305       
 Node-42             	29.60662        	-2.492401       
 Node-43             	29.606962       	-2.492686       
 Node-44             	29.607392       	-2.493016       
 Node-45             	29.607483       	-2.493109       
 Node-46             	29.607552       	-2.493204       
 Node-47             	29.607582       	-2.493353       
 Node-48             	29.607585       	-2.49353        
 Node-49             	29.607558       	-2.493969       
 Node-50             	29.607577       	-2.494365       
 Node-51             	29.607647       	-2.49464        
 Node-52             	29.607786       	-2.494839       
 Node-53             	29.607956       	-2.494949       
 Node-54             	29.608231       	-2.495081       
 Node-90             	29.608468       	-2.495164       
 Node-56             	29.608716       	-2.495222       
 Node-57             	29.608939       	-2.495277       
 Node-58             	29.609356       	-2.495365       
 Node-59             	29.609739       	-2.495421       
 Node-60             	29.609939       	-2.495374       
 Node-61             	29.610035       	-2.49534        
 Node-62             	29.610196       	-2.495249       
 Node-63             	29.610372       	-2.495195       
 Node-64             	29.61059        	-2.495166       
 Node-65             	29.610931       	-2.495205       
 Node-66             	29.61133        	-2.495281       
 Node-67             	29.611711       	-2.495356       
 Node-68             	29.612092       	-2.495421       
 Node-69             	29.612375       	-2.495437       
 Node-71             	29.61254        	-2.495413       
 Node-73             	29.602546       	-2.494297       
 Node-74             	29.602697       	-2.494138       
 Node-75             	29.602878       	-2.494003       
 Node-76             	29.603142       	-2.493869       
 Node-77             	29.603488       	-2.493703       
 Node-78             	29.603879       	-2.493508       
 Node-79             	29.604232       	-2.493336       
 Node-80             	29.604691       	-2.493122       
 Node-81             	29.605067       	-2.492917       
 Node-82             	29.605443       	-2.49268        
 Node-83             	29.605599       	-2.49251        
 Node-84             	29.605799       	-2.492269       
 Node-85             	29.606076       	-2.491891       
 Node-86             	29.606437       	-2.491431       
 Node-89             	29.608397       	-2.495186       
 Spring-5337         	29.612569       	-2.495389       
 Tank-18919          	29.604761       	-2.485616       
 Tank-18920          	29.607122       	-2.489872       
 Tank-18977          	29.608365       	-2.495204       

[END]
