[TITLE]
2049 Kabyira-Simbi WSS in Huye District

[JUNCTIONS]
;ID                  	Elev        	Demand      	Pattern         
 Node-220            	1679.0      	0.0         	                	;
 Node-2              	1679.0      	0.0         	                	;
 Node-3              	1679.0      	0.0         	                	;
 Node-241            	1680.0      	0.0         	                	;
 Node-235            	1680.0      	0.0         	                	;
 Node-6              	1680.0      	0.0         	                	;
 Node-7              	1680.0      	0.0         	                	;
 Node-8              	1679.0      	0.0         	                	;
 Node-232            	1679.0      	0.0         	                	;
 Node-225            	1679.0      	0.0         	                	;
 Node-216            	1679.0      	0.0         	                	;
 Node-230            	1677.0      	0.0         	                	;
 Node-13             	1674.0      	0.0         	                	;
 Node-14             	1669.0      	0.0         	                	;
 Node-30             	1665.0      	0.0         	                	;
 Node-585            	1644.0      	0.0         	                	;
 Node-17             	1644.0      	0.0         	                	;
 Node-18             	1647.0      	0.0         	                	;
 Node-19             	1648.0      	0.0         	                	;
 Node-20             	1651.0      	0.0         	                	;
 Node-21             	1651.0      	0.0         	                	;
 Node-22             	1653.0      	0.0         	                	;
 Node-23             	1651.0      	0.0         	                	;
 Node-24             	1653.0      	0.0         	                	;
 Node-25             	1653.0      	0.0         	                	;
 Node-26             	1656.0      	0.0         	                	;
 Node-27             	1658.0      	0.0         	                	;
 Node-28             	1662.0      	0.0         	                	;
 Node-29             	1664.0      	0.0         	                	;
 Node-31             	1664.0      	0.0         	                	;
 Node-32             	1666.0      	0.0         	                	;
 Node-33             	1667.0      	0.0         	                	;
 Node-34             	1667.0      	0.0         	                	;
 Node-258            	1670.0      	0.0         	                	;
 Node-36             	1671.0      	0.0         	                	;
 Node-252            	1671.0      	0.0         	                	;
 Node-247            	1671.0      	0.0         	                	;
 Node-39             	1673.0      	0.0         	                	;
 Node-40             	1674.0      	0.0         	                	;
 Node-41             	1675.0      	0.0         	                	;
 Node-42             	1678.0      	0.0         	                	;
 Node-43             	1682.0      	0.0         	                	;
 Node-44             	1684.0      	0.0         	                	;
 Node-45             	1685.0      	0.0         	                	;
 Node-46             	1687.0      	0.0         	                	;
 Node-47             	1688.0      	0.0         	                	;
 Node-48             	1690.0      	0.0         	                	;
 Node-49             	1692.0      	0.0         	                	;
 Node-50             	1694.0      	0.0         	                	;
 Node-51             	1698.0      	0.0         	                	;
 Node-52             	1704.0      	0.0         	                	;
 Node-53             	1705.0      	0.0         	                	;
 Node-54             	1707.0      	0.0         	                	;
 Node-302            	1708.0      	0.0         	                	;
 Node-56             	1706.0      	0.0         	                	;
 Node-57             	1703.0      	0.0         	                	;
 Node-58             	1700.0      	0.0         	                	;
 Node-59             	1695.0      	0.0         	                	;
 Node-60             	1694.0      	0.0         	                	;
 Node-61             	1698.0      	0.0         	                	;
 Node-62             	1701.0      	0.0         	                	;
 Node-63             	1703.0      	0.0         	                	;
 Node-64             	1703.0      	0.0         	                	;
 Node-65             	1707.0      	0.0         	                	;
 Node-66             	1710.0      	0.0         	                	;
 Node-67             	1713.0      	0.0         	                	;
 Node-297            	1716.0      	0.0         	                	;
 Node-293            	1720.0      	0.0         	                	;
 Node-70             	1723.0      	0.0         	                	;
 Node-71             	1725.0      	0.0         	                	;
 Node-72             	1731.0      	0.0         	                	;
 Node-73             	1736.0      	0.0         	                	;
 Node-74             	1740.0      	0.0         	                	;
 Node-75             	1746.0      	0.0         	                	;
 Node-76             	1749.0      	0.0         	                	;
 Node-77             	1753.0      	0.0         	                	;
 Node-78             	1758.0      	0.0         	                	;
 Node-79             	1715.0      	0.0         	                	;
 Node-80             	1717.0      	0.0         	                	;
 Node-81             	1719.0      	0.0         	                	;
 Node-82             	1719.0      	0.0         	                	;
 Node-83             	1721.0      	0.0         	                	;
 Node-98             	1722.0      	0.0         	                	;
 Node-135            	1724.0      	0.0         	                	;
 Node-86             	1725.0      	0.003703704 	                	;
 Node-87             	1724.0      	0.0         	                	;
 Node-95             	1721.0      	0.0         	                	;
 Node-89             	1714.0      	0.013888889 	                	;
 Node-90             	1715.0      	0.0         	                	;
 Node-91             	1717.0      	0.0         	                	;
 Node-92             	1720.0      	0.0         	                	;
 Node-93             	1720.0      	0.0         	                	;
 Node-94             	1720.0      	0.0         	                	;
 Node-96             	1721.0      	0.0         	                	;
 Node-97             	1721.0      	0.0         	                	;
 Node-140            	1735.0      	0.0         	                	;
 Node-100            	1734.0      	0.0         	                	;
 Node-101            	1734.0      	0.0         	                	;
 Node-102            	1735.0      	0.0         	                	;
 Node-103            	1739.0      	0.0         	                	;
 Node-104            	1740.0      	0.0         	                	;
 Node-105            	1738.0      	0.0         	                	;
 Node-106            	1738.0      	0.0         	                	;
 Node-107            	1740.0      	0.0         	                	;
 Node-108            	1741.0      	0.0         	                	;
 Node-109            	1742.0      	0.00462963  	                	;
 Node-111            	1745.0      	0.0         	                	;
 Node-112            	1747.0      	0.0         	                	;
 Node-113            	1748.0      	0.0         	                	;
 Node-114            	1750.0      	0.0         	                	;
 Node-115            	1751.0      	0.0         	                	;
 Node-172            	1754.0      	0.0         	                	;
 Node-117            	1755.0      	0.0         	                	;
 Node-118            	1755.0      	0.0         	                	;
 Node-522            	1740.0      	0.0         	                	;
 Node-121            	1743.0      	0.0         	                	;
 Node-122            	1744.0      	0.0         	                	;
 Node-123            	1747.0      	0.0         	                	;
 Node-124            	1749.0      	0.0         	                	;
 Node-125            	1751.0      	0.0         	                	;
 Node-126            	1754.0      	0.0         	                	;
 Node-127            	1755.0      	0.0         	                	;
 Node-158            	1755.0      	0.0         	                	;
 Node-130            	1733.0      	1.513888889 	                	;
 Node-131            	1732.0      	0.0         	                	;
 Node-132            	1732.0      	0.0         	                	;
 Node-139            	1732.0      	0.0         	                	;
 Node-134            	1724.0      	0.231481481 	                	;
 Node-136            	1725.0      	0.0         	                	;
 Node-137            	1728.0      	0.0         	                	;
 Node-138            	1730.0      	0.0         	                	;
 Node-141            	1736.0      	0.0         	                	;
 Node-142            	1739.0      	0.0         	                	;
 Node-143            	1740.0      	0.0         	                	;
 Node-144            	1741.0      	0.0         	                	;
 Node-145            	1742.0      	0.0         	                	;
 Node-146            	1743.0      	0.0         	                	;
 Node-147            	1744.0      	0.0         	                	;
 Node-651            	1747.0      	0.0         	                	;
 Node-149            	1751.0      	0.0         	                	;
 Node-150            	1754.0      	0.0         	                	;
 Node-151            	1755.0      	0.0         	                	;
 Node-152            	1755.0      	0.0         	                	;
 Node-154            	1750.0      	0.37037037  	                	;
 Node-155            	1751.0      	0.0         	                	;
 Node-156            	1754.0      	0.0         	                	;
 Node-157            	1755.0      	0.0         	                	;
 Node-160            	1746.0      	0.37037037  	                	;
 Node-161            	1748.0      	0.0         	                	;
 Node-162            	1750.0      	0.0         	                	;
 Node-163            	1750.0      	0.0         	                	;
 Node-164            	1751.0      	0.0         	                	;
 Node-165            	1751.0      	0.0         	                	;
 Node-166            	1751.0      	0.0         	                	;
 Node-167            	1751.0      	0.0         	                	;
 Node-168            	1754.0      	0.0         	                	;
 Node-169            	1755.0      	0.0         	                	;
 Node-170            	1755.0      	0.0         	                	;
 Node-173            	1753.0      	0.0         	                	;
 Node-174            	1752.0      	0.007407407 	                	;
 Node-175            	1742.0      	0.601851852 	                	;
 Node-176            	1743.0      	0.0         	                	;
 Node-177            	1744.0      	0.0         	                	;
 Node-178            	1744.0      	0.0         	                	;
 Node-598            	1625.0      	0.0         	                	;
 Node-584            	1625.0      	0.0         	                	;
 Node-527            	1728.0      	0.0         	                	;
 Node-183            	1728.0      	0.007407407 	                	;
 Node-184            	1728.0      	0.013888889 	                	;
 Node-185            	1732.0      	0.0         	                	;
 Node-186            	1733.0      	0.0         	                	;
 Node-191            	1735.0      	0.0         	                	;
 Node-188            	1735.0      	0.0         	                	;
 Node-189            	1737.0      	0.0         	                	;
 Node-192            	1735.0      	0.231481481 	                	;
 Node-193            	1681.0      	0.006481481 	                	;
 Node-194            	1679.0      	0.0         	                	;
 Node-212            	1677.0      	0.0         	                	;
 Node-210            	1675.0      	0.0         	                	;
 Node-197            	1673.0      	0.0         	                	;
 Node-198            	1674.0      	0.00462963  	                	;
 Node-199            	1686.0      	0.00462963  	                	;
 Node-200            	1685.0      	0.0         	                	;
 Node-201            	1685.0      	0.0         	                	;
 Node-202            	1685.0      	0.0         	                	;
 Node-203            	1681.0      	0.0         	                	;
 Node-204            	1678.0      	0.0         	                	;
 Node-205            	1674.0      	0.0         	                	;
 Node-207            	1674.0      	0.0         	                	;
 Node-208            	1674.0      	0.0         	                	;
 Node-209            	1675.0      	0.0         	                	;
 Node-211            	1676.0      	0.0         	                	;
 Node-213            	1677.0      	0.0         	                	;
 Node-229            	1678.0      	0.0         	                	;
 Node-215            	1678.0      	0.0         	                	;
 Node-217            	1683.0      	0.00462963  	                	;
 Node-218            	1684.0      	0.0         	                	;
 Node-219            	1680.0      	0.0         	                	;
 Node-221            	1687.0      	0.003703704 	                	;
 Node-222            	1686.0      	0.0         	                	;
 Node-223            	1683.0      	0.0         	                	;
 Node-224            	1681.0      	0.0         	                	;
 Node-226            	1683.0      	0.005555556 	                	;
 Node-227            	1684.0      	0.0         	                	;
 Node-228            	1682.0      	0.0         	                	;
 Node-231            	1677.0      	0.005555556 	                	;
 Node-233            	1678.0      	0.0         	                	;
 Node-234            	1677.0      	0.003703704 	                	;
 Node-236            	1677.0      	0.0         	                	;
 Node-237            	1677.0      	0.005555556 	                	;
 Node-238            	1686.0      	0.005555556 	                	;
 Node-239            	1684.0      	0.0         	                	;
 Node-240            	1683.0      	0.0         	                	;
 Node-242            	1683.0      	0.003703704 	                	;
 Node-243            	1683.0      	0.0         	                	;
 Node-248            	1681.0      	0.0         	                	;
 Node-290            	1680.0      	0.0         	                	;
 Node-246            	1676.0      	0.0         	                	;
 Node-249            	1681.0      	0.0         	                	;
 Node-250            	1681.0      	0.0         	                	;
 Node-251            	1681.0      	0.003703704 	                	;
 Node-253            	1672.0      	0.0         	                	;
 Node-254            	1675.0      	0.0         	                	;
 Node-255            	1675.0      	0.003703704 	                	;
 Node-256            	1673.0      	0.00462963  	                	;
 Node-257            	1672.0      	0.0         	                	;
 Node-260            	1708.0      	0.0         	                	;
 Node-298            	1706.0      	0.0         	                	;
 Node-262            	1703.0      	0.0         	                	;
 Node-263            	1700.0      	0.0         	                	;
 Node-264            	1699.0      	0.0         	                	;
 Node-265            	1698.0      	0.231481481 	                	;
 Node-281            	1705.0      	0.0         	                	;
 Node-267            	1705.0      	0.0         	                	;
 Node-268            	1704.0      	0.005555556 	                	;
 Node-269            	1691.0      	0.555555556 	                	;
 Node-270            	1692.0      	0.0         	                	;
 Node-271            	1693.0      	0.0         	                	;
 Node-272            	1691.0      	0.0         	                	;
 Node-273            	1692.0      	0.0         	                	;
 Node-274            	1693.0      	0.0         	                	;
 Node-275            	1691.0      	0.0         	                	;
 Node-276            	1690.0      	0.0         	                	;
 Node-277            	1692.0      	0.0         	                	;
 Node-278            	1693.0      	0.0         	                	;
 Node-279            	1698.0      	0.0         	                	;
 Node-280            	1704.0      	0.0         	                	;
 Node-282            	1707.0      	0.0         	                	;
 Node-283            	1708.0      	0.0         	                	;
 Node-285            	1683.0      	0.003703704 	                	;
 Node-286            	1683.0      	0.0         	                	;
 Node-287            	1682.0      	0.0         	                	;
 Node-288            	1680.0      	0.0         	                	;
 Node-289            	1680.0      	0.0         	                	;
 Node-291            	1722.0      	0.00462963  	                	;
 Node-292            	1719.0      	0.0         	                	;
 Node-294            	1718.0      	0.007407407 	                	;
 Node-295            	1719.0      	0.0         	                	;
 Node-296            	1718.0      	0.0         	                	;
 Node-299            	1706.0      	0.0         	                	;
 Node-300            	1706.0      	0.005555556 	                	;
 Node-399            	1802.0      	0.0         	                	;
 Node-304            	1800.0      	0.0         	                	;
 Node-305            	1798.0      	0.0         	                	;
 Node-306            	1799.0      	0.0         	                	;
 Node-307            	1796.0      	0.0         	                	;
 Node-308            	1796.0      	0.0         	                	;
 Node-309            	1796.0      	0.0         	                	;
 Node-310            	1796.0      	0.0         	                	;
 Node-311            	1794.0      	0.0         	                	;
 Node-312            	1791.0      	0.0         	                	;
 Node-313            	1791.0      	0.0         	                	;
 Node-314            	1792.0      	0.0         	                	;
 Node-410            	1790.0      	0.0         	                	;
 Node-316            	1791.0      	0.0         	                	;
 Node-317            	1791.0      	0.0         	                	;
 Node-318            	1792.0      	0.0         	                	;
 Node-319            	1792.0      	0.0         	                	;
 Node-320            	1792.0      	0.0         	                	;
 Node-321            	1791.0      	0.0         	                	;
 Node-322            	1791.0      	0.0         	                	;
 Node-323            	1791.0      	0.0         	                	;
 Node-324            	1791.0      	0.0         	                	;
 Node-325            	1790.0      	0.0         	                	;
 Node-326            	1790.0      	0.0         	                	;
 Node-327            	1789.0      	0.0         	                	;
 Node-328            	1786.0      	0.0         	                	;
 Node-329            	1785.0      	0.0         	                	;
 Node-330            	1786.0      	0.0         	                	;
 Node-331            	1782.0      	0.0         	                	;
 Node-332            	1780.0      	0.0         	                	;
 Node-333            	1780.0      	0.0         	                	;
 Node-334            	1780.0      	0.0         	                	;
 Node-473            	1779.0      	0.0         	                	;
 Node-336            	1776.0      	0.0         	                	;
 Node-337            	1773.0      	0.0         	                	;
 Node-338            	1770.0      	0.0         	                	;
 Node-339            	1767.0      	0.0         	                	;
 Node-340            	1764.0      	0.0         	                	;
 Node-341            	1762.0      	0.0         	                	;
 Node-342            	1762.0      	0.0         	                	;
 Node-465            	1760.0      	0.0         	                	;
 Node-344            	1759.0      	0.0         	                	;
 Node-345            	1757.0      	0.0         	                	;
 Node-346            	1754.0      	0.0         	                	;
 Node-347            	1752.0      	0.0         	                	;
 Node-348            	1748.0      	0.0         	                	;
 Node-349            	1745.0      	0.0         	                	;
 Node-350            	1745.0      	0.0         	                	;
 Node-351            	1745.0      	0.0         	                	;
 Node-352            	1745.0      	0.0         	                	;
 Node-354            	1777.0      	0.138888889 	                	;
 Node-372            	1782.0      	0.0         	                	;
 Node-356            	1784.0      	0.0         	                	;
 Node-357            	1785.0      	0.0         	                	;
 Node-358            	1783.0      	0.0         	                	;
 Node-359            	1772.0      	0.0         	                	;
 Node-360            	1775.0      	0.0         	                	;
 Node-361            	1779.0      	0.0         	                	;
 Node-362            	1783.0      	0.0         	                	;
 Node-363            	1785.0      	0.0         	                	;
 Node-364            	1788.0      	0.0         	                	;
 Node-409            	1793.0      	0.0         	                	;
 Node-366            	1775.0      	0.694444444 	                	;
 Node-367            	1774.0      	0.0         	                	;
 Node-368            	1776.0      	0.0         	                	;
 Node-369            	1774.0      	0.0         	                	;
 Node-370            	1775.0      	0.0         	                	;
 Node-371            	1777.0      	0.0         	                	;
 Node-600            	1763.0      	0.0         	                	;
 Node-374            	1763.0      	0.0         	                	;
 Node-375            	1767.0      	0.00462963  	                	;
 Node-425            	1810.0      	0.0         	                	;
 Node-386            	1810.0      	0.0         	                	;
 Node-378            	1806.0      	0.0         	                	;
 Node-379            	1810.0      	0.0         	                	;
 Node-380            	1806.0      	0.0         	                	;
 Node-381            	1801.0      	0.0         	                	;
 Node-382            	1799.0      	0.0         	                	;
 Node-383            	1796.0      	0.0         	                	;
 Node-384            	1794.0      	0.231481481 	                	;
 Node-387            	1806.0      	0.0         	                	;
 Node-388            	1810.0      	0.0         	                	;
 Node-389            	1806.0      	0.0         	                	;
 Node-390            	1801.0      	0.0         	                	;
 Node-391            	1804.0      	0.0         	                	;
 Node-392            	1801.0      	0.0         	                	;
 Node-393            	1803.0      	0.0         	                	;
 Node-394            	1804.0      	0.0         	                	;
 Node-395            	1805.0      	0.0         	                	;
 Node-396            	1805.0      	0.0         	                	;
 Node-397            	1806.0      	0.0         	                	;
 Node-398            	1804.0      	0.0         	                	;
 Node-400            	1800.0      	0.0         	                	;
 Node-401            	1798.0      	0.0         	                	;
 Node-403            	1796.0      	0.0         	                	;
 Node-405            	1796.0      	0.0         	                	;
 Node-617            	1793.0      	0.0         	                	;
 Node-408            	1796.0      	0.0         	                	;
 Node-411            	1792.0      	0.0         	                	;
 Node-412            	1795.0      	0.0         	                	;
 Node-413            	1795.0      	0.005555556 	                	;
 Node-415            	1817.0      	0.0         	                	;
 Node-416            	1813.0      	0.0         	                	;
 Node-417            	1813.0      	0.0         	                	;
 Node-420            	1819.0      	0.0         	                	;
 Node-421            	1815.0      	0.0         	                	;
 Node-422            	1815.0      	0.0         	                	;
 Node-423            	1815.0      	0.0         	                	;
 Node-426            	1810.0      	0.0         	                	;
 Node-427            	1810.0      	0.0         	                	;
 Node-428            	1816.0      	0.0         	                	;
 Node-429            	1818.0      	0.0         	                	;
 Node-432            	1745.0      	0.0         	                	;
 Node-433            	1743.0      	0.0         	                	;
 Node-434            	1741.0      	0.0         	                	;
 Node-435            	1738.0      	0.0         	                	;
 Node-436            	1738.0      	0.0         	                	;
 Node-437            	1738.0      	0.0         	                	;
 Node-438            	1735.0      	0.0         	                	;
 Node-439            	1733.0      	0.0         	                	;
 Node-440            	1733.0      	0.0         	                	;
 Node-441            	1732.0      	0.0         	                	;
 Node-442            	1732.0      	0.0         	                	;
 Node-443            	1730.0      	0.0         	                	;
 Node-444            	1728.0      	0.0         	                	;
 Node-445            	1724.0      	0.0         	                	;
 Node-446            	1724.0      	0.0         	                	;
 Node-447            	1723.0      	0.0         	                	;
 Node-448            	1724.0      	0.0         	                	;
 Node-449            	1725.0      	0.0         	                	;
 Node-504            	1724.0      	0.0         	                	;
 Node-451            	1723.0      	0.0         	                	;
 Node-452            	1722.0      	0.0         	                	;
 Node-453            	1723.0      	0.0         	                	;
 Node-454            	1718.0      	0.0         	                	;
 Node-455            	1715.0      	0.0         	                	;
 Node-456            	1715.0      	0.0         	                	;
 Node-457            	1709.0      	0.0         	                	;
 Node-458            	1706.0      	0.0         	                	;
 Node-459            	1702.0      	0.0         	                	;
 Node-460            	1698.0      	0.0         	                	;
 Node-461            	1696.0      	0.0         	                	;
 Node-462            	1692.0      	0.0         	                	;
 Node-463            	1688.0      	0.0         	                	;
 Node-464            	1682.0      	0.231481481 	                	;
 Node-468            	1760.0      	0.0         	                	;
 Node-467            	1758.0      	0.002777778 	                	;
 Node-469            	1760.0      	0.0         	                	;
 Node-470            	1758.0      	0.0         	                	;
 Node-471            	1756.0      	0.0         	                	;
 Node-472            	1753.0      	0.002777778 	                	;
 Node-474            	1779.0      	0.0         	                	;
 Node-475            	1778.0      	0.006481481 	                	;
 Node-476            	1736.0      	0.00462963  	                	;
 Node-477            	1737.0      	0.0         	                	;
 Node-478            	1737.0      	0.0         	                	;
 Node-496            	1738.0      	0.0         	                	;
 Node-493            	1741.0      	0.0         	                	;
 Node-481            	1741.0      	0.0         	                	;
 Node-482            	1740.0      	0.003703704 	                	;
 Node-483            	1740.0      	0.00462963  	                	;
 Node-484            	1740.0      	0.0         	                	;
 Node-485            	1743.0      	0.0         	                	;
 Node-486            	1743.0      	0.0         	                	;
 Node-487            	1743.0      	0.0         	                	;
 Node-491            	1745.0      	0.0         	                	;
 Node-490            	1745.0      	0.0         	                	;
 Node-492            	1743.0      	0.0         	                	;
 Node-494            	1738.0      	0.0         	                	;
 Node-495            	1738.0      	0.0         	                	;
 Node-521            	1735.0      	0.0         	                	;
 Node-498            	1734.0      	0.324074074 	                	;
 Node-499            	1718.0      	0.003703704 	                	;
 Node-500            	1721.0      	0.0         	                	;
 Node-501            	1721.0      	0.0         	                	;
 Node-502            	1721.0      	0.0         	                	;
 Node-503            	1721.0      	0.0         	                	;
 Node-505            	1717.0      	0.00462963  	                	;
 Node-506            	1717.0      	0.0         	                	;
 Node-507            	1717.0      	0.0         	                	;
 Node-508            	1718.0      	0.0         	                	;
 Node-509            	1723.0      	0.0         	                	;
 Node-510            	1725.0      	0.0         	                	;
 Node-511            	1725.0      	0.0         	                	;